C77222-P124
     RDKit          3D

 41 41  0  0  0  0  0  0  0  0999 V2000
   18.1504   -2.6681   17.8699 C   0  0  0  0  0  0  0  0  0  0  0  0
   17.1857   -2.2321   16.7670 C   0  0  0  0  0  0  0  0  0  0  0  0
   17.8210   -1.0568   16.0035 C   0  0  0  0  0  0  0  0  0  0  0  0
   15.7797   -1.9879   17.3582 C   0  0  0  0  0  0  0  0  0  0  0  0
   15.6979   -0.9761   18.5210 C   0  0  0  0  0  0  0  0  0  0  0  0
   16.2121    0.4186   18.1787 C   0  0  0  0  0  0  0  0  0  0  0  0
   17.1384    0.9063   18.6875 O   0  0  0  0  0  0  0  0  0  0  0  0
   15.3323    0.9184   17.0148 N   0  0  0  0  0  0  0  0  0  0  0  0
   15.4662    2.0740   16.1751 C   0  0  0  0  0  0  0  0  0  0  0  0
   14.4502    2.0804   15.0335 C   0  0  0  0  0  0  0  0  0  0  0  0
   14.5529    0.8940   14.0615 C   0  0  0  0  0  0  0  0  0  0  0  0
   14.0473   -0.4718   14.5389 C   0  0  0  0  0  0  0  0  0  0  0  0
   13.1877   -1.0309   13.4260 C   0  0  0  0  0  0  0  0  0  0  0  0
   13.5868   -0.2311   12.2699 N   0  0  0  0  0  0  0  0  0  0  0  0
   13.7293    1.1209   12.8043 C   0  0  0  0  0  0  0  0  0  0  0  0
   17.0471   -3.3807   15.7559 N   0  0  0  0  0  0  0  0  0  0  0  0
   16.7475   -3.0750   14.5939 O   0  0  0  0  0  0  0  0  0  0  0  0
   17.2135   -4.5341   16.1708 O   0  0  0  0  0  0  0  0  0  0  0  0
   19.1025   -3.0199   17.4533 H   0  0  0  0  0  0  0  0  0  0  0  0
   18.3888   -1.8427   18.5497 H   0  0  0  0  0  0  0  0  0  0  0  0
   17.7404   -3.4834   18.4778 H   0  0  0  0  0  0  0  0  0  0  0  0
   18.6958   -1.3855   15.4274 H   0  0  0  0  0  0  0  0  0  0  0  0
   17.1221   -0.6010   15.2964 H   0  0  0  0  0  0  0  0  0  0  0  0
   18.1827   -0.2727   16.6723 H   0  0  0  0  0  0  0  0  0  0  0  0
   15.3964   -2.9403   17.7539 H   0  0  0  0  0  0  0  0  0  0  0  0
   15.0703   -1.7245   16.5805 H   0  0  0  0  0  0  0  0  0  0  0  0
   14.6586   -0.8832   18.8559 H   0  0  0  0  0  0  0  0  0  0  0  0
   16.2589   -1.3436   19.3877 H   0  0  0  0  0  0  0  0  0  0  0  0
   14.5628    0.2859   16.8800 H   0  0  0  0  0  0  0  0  0  0  0  0
   15.3364    2.9565   16.8098 H   0  0  0  0  0  0  0  0  0  0  0  0
   16.4925    2.0935   15.7942 H   0  0  0  0  0  0  0  0  0  0  0  0
   14.5999    3.0092   14.4679 H   0  0  0  0  0  0  0  0  0  0  0  0
   13.4404    2.1352   15.4483 H   0  0  0  0  0  0  0  0  0  0  0  0
   15.6071    0.7856   13.7677 H   0  0  0  0  0  0  0  0  0  0  0  0
   13.4587   -0.4267   15.4471 H   0  0  0  0  0  0  0  0  0  0  0  0
   14.9058   -1.1276   14.6803 H   0  0  0  0  0  0  0  0  0  0  0  0
   12.1226   -0.8852   13.6394 H   0  0  0  0  0  0  0  0  0  0  0  0
   13.3580   -2.0980   13.2618 H   0  0  0  0  0  0  0  0  0  0  0  0
   14.4985   -0.5624   11.9504 H   0  0  0  0  0  0  0  0  0  0  0  0
   14.2392    1.7769   12.0919 H   0  0  0  0  0  0  0  0  0  0  0  0
   12.7446    1.5527   13.0204 H   0  0  0  0  0  0  0  0  0  0  0  0
  1  2  1  0
  2  3  1  0
  2  4  1  0
  4  5  1  0
  5  6  1  0
  6  7  2  0
  6  8  1  0
  8  9  1  0
  9 10  1  0
 10 11  1  0
 11 12  1  0
 12 13  1  0
 13 14  1  0
 14 15  1  0
  2 16  1  0
 16 17  2  0
 16 18  1  0
 15 11  1  0
  1 19  1  0
  1 20  1  0
  1 21  1  0
  3 22  1  0
  3 23  1  0
  3 24  1  0
  4 25  1  0
  4 26  1  0
  5 27  1  0
  5 28  1  0
  8 29  1  0
  9 30  1  0
  9 31  1  0
 10 32  1  0
 10 33  1  0
 11 34  1  0
 12 35  1  0
 12 36  1  0
 13 37  1  0
 13 38  1  0
 14 39  1  0
 15 40  1  0
 15 41  1  0
M  CHG  2  16   1  18  -1
M  END
>  <Energy>  (1) 
22.233224867957617

>  <compound_id>  (1) 
77222

>  <target_id>  (1) 
1

>  <reference_id>  (1) 
124

>  <inspiration_ids>  (1) 
[124, 97]

>  <energy_score>  (1) 
-45.498883298767254

>  <distance_score>  (1) 
2.1423701657539427

>  <path>  (1) 
/opt/xchem-fragalysis-2/maxwin/BulkDock/SCRATCH/511024/C77222-P124/C77222-P124.minimised.mol

>  <scratch_subdir>  (1) 
/opt/xchem-fragalysis-2/maxwin/BulkDock/SCRATCH/511024/C77222-P124

>  <fragmenstein_runtime>  (1) 
9.629554033279419

>  <fragmenstein_outcome>  (1) 
too moved

>  <fragmenstein_mode>  (1) 
expansion

>  <fragmenstein_error>  (1) 


$$$$
C77222-P97
     RDKit          3D

 41 41  0  0  0  0  0  0  0  0999 V2000
   16.9232   -1.8857   17.4106 C   0  0  0  0  0  0  0  0  0  0  0  0
   16.4970   -2.6789   16.1707 C   0  0  0  0  0  0  0  0  0  0  0  0
   15.2892   -3.5546   16.5317 C   0  0  0  0  0  0  0  0  0  0  0  0
   16.1882   -1.7981   14.9296 C   0  0  0  0  0  0  0  0  0  0  0  0
   17.2359   -0.7061   14.6095 C   0  0  0  0  0  0  0  0  0  0  0  0
   16.8686    0.5977   15.3083 C   0  0  0  0  0  0  0  0  0  0  0  0
   17.3562    0.9447   16.3071 O   0  0  0  0  0  0  0  0  0  0  0  0
   15.7183    1.2198   14.4874 N   0  0  0  0  0  0  0  0  0  0  0  0
   14.8695    2.3411   14.7737 C   0  0  0  0  0  0  0  0  0  0  0  0
   13.4456    2.1176   14.2683 C   0  0  0  0  0  0  0  0  0  0  0  0
   12.9475    0.6710   14.3606 C   0  0  0  0  0  0  0  0  0  0  0  0
   12.9666    0.0124   15.7293 C   0  0  0  0  0  0  0  0  0  0  0  0
   12.0949   -1.1998   15.4568 C   0  0  0  0  0  0  0  0  0  0  0  0
   10.9612   -0.5930   14.7707 N   0  0  0  0  0  0  0  0  0  0  0  0
   11.4799    0.5245   13.9682 C   0  0  0  0  0  0  0  0  0  0  0  0
   17.6363   -3.6390   15.8044 N   0  0  0  0  0  0  0  0  0  0  0  0
   18.0942   -3.5885   14.6542 O   0  0  0  0  0  0  0  0  0  0  0  0
   18.0277   -4.4182   16.6817 O   0  0  0  0  0  0  0  0  0  0  0  0
   17.8943   -1.3994   17.2735 H   0  0  0  0  0  0  0  0  0  0  0  0
   17.0274   -2.5333   18.2897 H   0  0  0  0  0  0  0  0  0  0  0  0
   16.1775   -1.1238   17.6617 H   0  0  0  0  0  0  0  0  0  0  0  0
   14.3900   -2.9478   16.6804 H   0  0  0  0  0  0  0  0  0  0  0  0
   15.0856   -4.2912   15.7557 H   0  0  0  0  0  0  0  0  0  0  0  0
   15.4569   -4.1188   17.4572 H   0  0  0  0  0  0  0  0  0  0  0  0
   16.0759   -2.4359   14.0415 H   0  0  0  0  0  0  0  0  0  0  0  0
   15.2085   -1.3455   15.0513 H   0  0  0  0  0  0  0  0  0  0  0  0
   18.2506   -0.9895   14.9063 H   0  0  0  0  0  0  0  0  0  0  0  0
   17.2732   -0.5308   13.5278 H   0  0  0  0  0  0  0  0  0  0  0  0
   15.6014    0.7034   13.6230 H   0  0  0  0  0  0  0  0  0  0  0  0
   14.8740    2.4885   15.8588 H   0  0  0  0  0  0  0  0  0  0  0  0
   15.3103    3.2313   14.3149 H   0  0  0  0  0  0  0  0  0  0  0  0
   13.4019    2.4169   13.2126 H   0  0  0  0  0  0  0  0  0  0  0  0
   12.7718    2.7972   14.8042 H   0  0  0  0  0  0  0  0  0  0  0  0
   13.5321    0.0503   13.6665 H   0  0  0  0  0  0  0  0  0  0  0  0
   12.5117    0.6790   16.4696 H   0  0  0  0  0  0  0  0  0  0  0  0
   13.9544   -0.2432   16.1053 H   0  0  0  0  0  0  0  0  0  0  0  0
   11.7950   -1.7110   16.3704 H   0  0  0  0  0  0  0  0  0  0  0  0
   12.6035   -1.9212   14.8063 H   0  0  0  0  0  0  0  0  0  0  0  0
   10.4750   -1.2545   14.1453 H   0  0  0  0  0  0  0  0  0  0  0  0
   11.3777    0.3370   12.8969 H   0  0  0  0  0  0  0  0  0  0  0  0
   10.8972    1.4211   14.2059 H   0  0  0  0  0  0  0  0  0  0  0  0
  1  2  1  0
  2  3  1  0
  2  4  1  0
  4  5  1  0
  5  6  1  0
  6  7  2  0
  6  8  1  0
  8  9  1  0
  9 10  1  0
 10 11  1  0
 11 12  1  0
 12 13  1  0
 13 14  1  0
 14 15  1  0
  2 16  1  0
 16 17  2  0
 16 18  1  0
 15 11  1  0
  1 19  1  0
  1 20  1  0
  1 21  1  0
  3 22  1  0
  3 23  1  0
  3 24  1  0
  4 25  1  0
  4 26  1  0
  5 27  1  0
  5 28  1  0
  8 29  1  0
  9 30  1  0
  9 31  1  0
 10 32  1  0
 10 33  1  0
 11 34  1  0
 12 35  1  0
 12 36  1  0
 13 37  1  0
 13 38  1  0
 14 39  1  0
 15 40  1  0
 15 41  1  0
M  CHG  2  16   1  18  -1
M  END
>  <Energy>  (2) 
22.201793723686986

>  <compound_id>  (2) 
77222

>  <target_id>  (2) 
1

>  <reference_id>  (2) 
97

>  <inspiration_ids>  (2) 
[124, 97]

>  <energy_score>  (2) 
-45.53031444303801

>  <distance_score>  (2) 
2.5915296771641914

>  <path>  (2) 
/opt/xchem-fragalysis-2/maxwin/BulkDock/SCRATCH/511024/C77222-P97/C77222-P97.minimised.mol

>  <scratch_subdir>  (2) 
/opt/xchem-fragalysis-2/maxwin/BulkDock/SCRATCH/511024/C77222-P97

>  <fragmenstein_runtime>  (2) 
9.827685356140137

>  <fragmenstein_outcome>  (2) 
too moved

>  <fragmenstein_mode>  (2) 
expansion

>  <fragmenstein_error>  (2) 


$$$$
C77223-P124
     RDKit          3D

 30 30  0  0  0  0  0  0  0  0999 V2000
   16.6727   -1.0965   17.8677 C   0  0  0  0  0  0  0  0  0  0  0  0
   17.0936   -2.5077   17.4897 C   0  0  0  0  0  0  0  0  0  0  0  0
   16.4433   -2.9922   16.1869 C   0  0  0  0  0  0  0  0  0  0  0  0
   14.9071   -3.0332   16.2471 C   0  0  0  0  0  0  0  0  0  0  0  0
   14.1619   -1.8933   15.5451 C   0  0  0  0  0  0  0  0  0  0  0  0
   14.6936   -1.4224   14.1991 C   0  0  0  0  0  0  0  0  0  0  0  0
   13.4722   -0.8710   13.4743 C   0  0  0  0  0  0  0  0  0  0  0  0
   12.3186   -1.1899   14.3076 N   0  0  0  0  0  0  0  0  0  0  0  0
   12.7137   -2.2572   15.2098 C   0  0  0  0  0  0  0  0  0  0  0  0
   18.5363   -2.5877   17.3732 N   0  0  0  0  0  0  0  0  0  0  0  0
   19.4847   -3.7914   17.5115 C   0  0  0  0  0  0  0  0  0  0  0  0
   19.2525   -4.9197   17.6645 O   0  0  0  0  0  0  0  0  0  0  0  0
   17.2216   -0.7528   18.7518 H   0  0  0  0  0  0  0  0  0  0  0  0
   16.8817   -0.3888   17.0578 H   0  0  0  0  0  0  0  0  0  0  0  0
   15.6066   -1.0425   18.1064 H   0  0  0  0  0  0  0  0  0  0  0  0
   16.8158   -3.1965   18.2964 H   0  0  0  0  0  0  0  0  0  0  0  0
   16.8059   -2.3988   15.3412 H   0  0  0  0  0  0  0  0  0  0  0  0
   16.7968   -4.0151   15.9956 H   0  0  0  0  0  0  0  0  0  0  0  0
   14.5614   -3.1015   17.2867 H   0  0  0  0  0  0  0  0  0  0  0  0
   14.6007   -3.9836   15.8033 H   0  0  0  0  0  0  0  0  0  0  0  0
   14.1907   -1.0211   16.2064 H   0  0  0  0  0  0  0  0  0  0  0  0
   15.4706   -0.6596   14.3160 H   0  0  0  0  0  0  0  0  0  0  0  0
   15.1187   -2.2550   13.6272 H   0  0  0  0  0  0  0  0  0  0  0  0
   13.5450    0.2112   13.3296 H   0  0  0  0  0  0  0  0  0  0  0  0
   13.3965   -1.3413   12.4909 H   0  0  0  0  0  0  0  0  0  0  0  0
   11.4949   -1.4302   13.7504 H   0  0  0  0  0  0  0  0  0  0  0  0
   12.6223   -3.2164   14.7006 H   0  0  0  0  0  0  0  0  0  0  0  0
   12.0739   -2.3047   16.0937 H   0  0  0  0  0  0  0  0  0  0  0  0
   19.0753   -1.7539   17.1682 H   0  0  0  0  0  0  0  0  0  0  0  0
   20.4988   -3.3635   17.3933 H   0  0  0  0  0  0  0  0  0  0  0  0
  1  2  1  0
  2  3  1  0
  3  4  1  0
  4  5  1  0
  5  6  1  0
  6  7  1  0
  7  8  1  0
  8  9  1  0
  2 10  1  0
 10 11  1  0
 11 12  2  0
  9  5  1  0
  1 13  1  0
  1 14  1  0
  1 15  1  0
  2 16  1  0
  3 17  1  0
  3 18  1  0
  4 19  1  0
  4 20  1  0
  5 21  1  0
  6 22  1  0
  6 23  1  0
  7 24  1  0
  7 25  1  0
  8 26  1  0
  9 27  1  0
  9 28  1  0
 10 29  1  0
 11 30  1  0
M  END
>  <Energy>  (3) 
5.7693819251751126

>  <compound_id>  (3) 
77223

>  <target_id>  (3) 
1

>  <reference_id>  (3) 
124

>  <inspiration_ids>  (3) 
[124, 97]

>  <energy_score>  (3) 
-1.9607177344590525

>  <distance_score>  (3) 
2.8831138444839723

>  <path>  (3) 
/opt/xchem-fragalysis-2/maxwin/BulkDock/SCRATCH/511024/C77223-P124/C77223-P124.minimised.mol

>  <scratch_subdir>  (3) 
/opt/xchem-fragalysis-2/maxwin/BulkDock/SCRATCH/511024/C77223-P124

>  <fragmenstein_runtime>  (3) 
7.900920867919922

>  <fragmenstein_outcome>  (3) 
too moved

>  <fragmenstein_mode>  (3) 
expansion

>  <fragmenstein_error>  (3) 


$$$$
C77223-P97
     RDKit          3D

 30 30  0  0  0  0  0  0  0  0999 V2000
   17.2650   -2.7453   17.7916 C   0  0  0  0  0  0  0  0  0  0  0  0
   17.1615   -2.6309   16.2737 C   0  0  0  0  0  0  0  0  0  0  0  0
   15.7119   -2.5572   15.7724 C   0  0  0  0  0  0  0  0  0  0  0  0
   14.8426   -1.5816   16.5865 C   0  0  0  0  0  0  0  0  0  0  0  0
   13.6173   -0.9806   15.9011 C   0  0  0  0  0  0  0  0  0  0  0  0
   13.9326   -0.0211   14.7514 C   0  0  0  0  0  0  0  0  0  0  0  0
   12.7507   -0.1702   13.8008 C   0  0  0  0  0  0  0  0  0  0  0  0
   11.7872   -0.9898   14.5315 N   0  0  0  0  0  0  0  0  0  0  0  0
   12.5932   -1.9315   15.3045 C   0  0  0  0  0  0  0  0  0  0  0  0
   17.9309   -1.4928   15.8121 N   0  0  0  0  0  0  0  0  0  0  0  0
   19.4416   -1.3429   15.5631 C   0  0  0  0  0  0  0  0  0  0  0  0
   20.3148   -2.0832   15.7616 O   0  0  0  0  0  0  0  0  0  0  0  0
   16.6548   -3.5745   18.1643 H   0  0  0  0  0  0  0  0  0  0  0  0
   18.3027   -2.9372   18.0881 H   0  0  0  0  0  0  0  0  0  0  0  0
   16.9581   -1.8272   18.3029 H   0  0  0  0  0  0  0  0  0  0  0  0
   17.6381   -3.5142   15.8318 H   0  0  0  0  0  0  0  0  0  0  0  0
   15.7082   -2.2937   14.7091 H   0  0  0  0  0  0  0  0  0  0  0  0
   15.2604   -3.5538   15.8502 H   0  0  0  0  0  0  0  0  0  0  0  0
   15.4570   -0.7359   16.9210 H   0  0  0  0  0  0  0  0  0  0  0  0
   14.5084   -2.0969   17.4965 H   0  0  0  0  0  0  0  0  0  0  0  0
   13.1036   -0.3872   16.6735 H   0  0  0  0  0  0  0  0  0  0  0  0
   14.0158    1.0053   15.1263 H   0  0  0  0  0  0  0  0  0  0  0  0
   14.8670   -0.2641   14.2363 H   0  0  0  0  0  0  0  0  0  0  0  0
   12.3221    0.7960   13.5200 H   0  0  0  0  0  0  0  0  0  0  0  0
   13.0772   -0.6834   12.8905 H   0  0  0  0  0  0  0  0  0  0  0  0
   11.1317   -1.4566   13.8924 H   0  0  0  0  0  0  0  0  0  0  0  0
   13.0457   -2.6786   14.6502 H   0  0  0  0  0  0  0  0  0  0  0  0
   12.0000   -2.4370   16.0707 H   0  0  0  0  0  0  0  0  0  0  0  0
   17.4644   -0.6186   15.5989 H   0  0  0  0  0  0  0  0  0  0  0  0
   19.5594   -0.3157   15.1677 H   0  0  0  0  0  0  0  0  0  0  0  0
  1  2  1  0
  2  3  1  0
  3  4  1  0
  4  5  1  0
  5  6  1  0
  6  7  1  0
  7  8  1  0
  8  9  1  0
  2 10  1  0
 10 11  1  0
 11 12  2  0
  9  5  1  0
  1 13  1  0
  1 14  1  0
  1 15  1  0
  2 16  1  0
  3 17  1  0
  3 18  1  0
  4 19  1  0
  4 20  1  0
  5 21  1  0
  6 22  1  0
  6 23  1  0
  7 24  1  0
  7 25  1  0
  8 26  1  0
  9 27  1  0
  9 28  1  0
 10 29  1  0
 11 30  1  0
M  END
>  <Energy>  (4) 
4.3272950179171392

>  <compound_id>  (4) 
77223

>  <target_id>  (4) 
1

>  <reference_id>  (4) 
97

>  <inspiration_ids>  (4) 
[124, 97]

>  <energy_score>  (4) 
-3.4028046417172675

>  <distance_score>  (4) 
2.42701779527047

>  <path>  (4) 
/opt/xchem-fragalysis-2/maxwin/BulkDock/SCRATCH/511024/C77223-P97/C77223-P97.minimised.mol

>  <scratch_subdir>  (4) 
/opt/xchem-fragalysis-2/maxwin/BulkDock/SCRATCH/511024/C77223-P97

>  <fragmenstein_runtime>  (4) 
7.5108091831207275

>  <fragmenstein_outcome>  (4) 
too moved

>  <fragmenstein_mode>  (4) 
expansion

>  <fragmenstein_error>  (4) 


$$$$
C77224-P124
     RDKit          3D

 45 45  0  0  0  0  0  0  0  0999 V2000
   18.1378   -0.8660   18.4971 C   0  0  0  0  0  0  0  0  0  0  0  0
   17.0187   -1.8772   18.2431 C   0  0  0  0  0  0  0  0  0  0  0  0
   15.6822   -1.2476   18.6626 C   0  0  0  0  0  0  0  0  0  0  0  0
   16.9034   -2.3325   16.7759 C   0  0  0  0  0  0  0  0  0  0  0  0
   18.2100   -2.6129   16.0025 C   0  0  0  0  0  0  0  0  0  0  0  0
   18.8307   -3.9083   16.5426 C   0  0  0  0  0  0  0  0  0  0  0  0
   18.1285   -2.7299   14.4569 C   0  0  0  0  0  0  0  0  0  0  0  0
   17.3088   -1.7807   13.5556 C   0  0  0  0  0  0  0  0  0  0  0  0
   16.9645   -2.1398   12.5005 O   0  0  0  0  0  0  0  0  0  0  0  0
   16.9988   -0.4752   14.3182 N   0  0  0  0  0  0  0  0  0  0  0  0
   16.1262    0.6167   13.9835 C   0  0  0  0  0  0  0  0  0  0  0  0
   14.6826    0.1813   13.6761 C   0  0  0  0  0  0  0  0  0  0  0  0
   13.9951   -0.7030   14.7248 C   0  0  0  0  0  0  0  0  0  0  0  0
   14.3571   -2.1657   14.6762 C   0  0  0  0  0  0  0  0  0  0  0  0
   13.3379   -2.7718   15.6209 C   0  0  0  0  0  0  0  0  0  0  0  0
   12.0813   -2.1292   15.0988 C   0  0  0  0  0  0  0  0  0  0  0  0
   12.5658   -0.9021   14.4664 N   0  0  0  0  0  0  0  0  0  0  0  0
   18.0970   -0.4908   19.5256 H   0  0  0  0  0  0  0  0  0  0  0  0
   19.1238   -1.3215   18.3645 H   0  0  0  0  0  0  0  0  0  0  0  0
   18.0586   -0.0071   17.8220 H   0  0  0  0  0  0  0  0  0  0  0  0
   17.2012   -2.7554   18.8742 H   0  0  0  0  0  0  0  0  0  0  0  0
   15.4517   -0.3519   18.0757 H   0  0  0  0  0  0  0  0  0  0  0  0
   14.8628   -1.9620   18.5379 H   0  0  0  0  0  0  0  0  0  0  0  0
   15.7053   -0.9590   19.7191 H   0  0  0  0  0  0  0  0  0  0  0  0
   16.3637   -1.5209   16.3027 H   0  0  0  0  0  0  0  0  0  0  0  0
   16.2585   -3.2197   16.7402 H   0  0  0  0  0  0  0  0  0  0  0  0
   18.9155   -1.7968   16.1955 H   0  0  0  0  0  0  0  0  0  0  0  0
   18.1665   -4.7654   16.3859 H   0  0  0  0  0  0  0  0  0  0  0  0
   19.0382   -3.8329   17.6147 H   0  0  0  0  0  0  0  0  0  0  0  0
   19.7814   -4.1221   16.0420 H   0  0  0  0  0  0  0  0  0  0  0  0
   19.1502   -2.7142   14.0542 H   0  0  0  0  0  0  0  0  0  0  0  0
   17.7257   -3.7283   14.2328 H   0  0  0  0  0  0  0  0  0  0  0  0
   17.5277   -0.4533   15.1778 H   0  0  0  0  0  0  0  0  0  0  0  0
   16.5500    1.1244   13.1113 H   0  0  0  0  0  0  0  0  0  0  0  0
   16.1374    1.3123   14.8287 H   0  0  0  0  0  0  0  0  0  0  0  0
   14.6702   -0.3324   12.7054 H   0  0  0  0  0  0  0  0  0  0  0  0
   14.0913    1.0965   13.5397 H   0  0  0  0  0  0  0  0  0  0  0  0
   14.1506   -0.2780   15.7222 H   0  0  0  0  0  0  0  0  0  0  0  0
   15.3535   -2.4458   14.9537 H   0  0  0  0  0  0  0  0  0  0  0  0
   14.2350   -2.5057   13.6395 H   0  0  0  0  0  0  0  0  0  0  0  0
   13.5448   -2.4632   16.6506 H   0  0  0  0  0  0  0  0  0  0  0  0
   13.2868   -3.8588   15.6280 H   0  0  0  0  0  0  0  0  0  0  0  0
   11.6077   -2.7562   14.3354 H   0  0  0  0  0  0  0  0  0  0  0  0
   11.3501   -1.9659   15.8892 H   0  0  0  0  0  0  0  0  0  0  0  0
   11.9894   -0.0700   14.5945 H   0  0  0  0  0  0  0  0  0  0  0  0
  1  2  1  0
  2  3  1  0
  2  4  1  0
  4  5  1  0
  5  6  1  0
  5  7  1  0
  7  8  1  0
  8  9  2  0
  8 10  1  0
 10 11  1  0
 11 12  1  0
 12 13  1  0
 13 14  1  0
 14 15  1  0
 15 16  1  0
 16 17  1  0
 17 13  1  0
  1 18  1  0
  1 19  1  0
  1 20  1  0
  2 21  1  0
  3 22  1  0
  3 23  1  0
  3 24  1  0
  4 25  1  0
  4 26  1  0
  5 27  1  0
  6 28  1  0
  6 29  1  0
  6 30  1  0
  7 31  1  0
  7 32  1  0
 10 33  1  0
 11 34  1  0
 11 35  1  0
 12 36  1  0
 12 37  1  0
 13 38  1  0
 14 39  1  0
 14 40  1  0
 15 41  1  0
 15 42  1  0
 16 43  1  0
 16 44  1  0
 17 45  1  0
M  END
>  <Energy>  (5) 
32.374059633674236

>  <compound_id>  (5) 
77224

>  <target_id>  (5) 
1

>  <reference_id>  (5) 
124

>  <inspiration_ids>  (5) 
[124, 97]

>  <energy_score>  (5) 
-7.237605993656466

>  <distance_score>  (5) 
1.9868127140343348

>  <path>  (5) 
/opt/xchem-fragalysis-2/maxwin/BulkDock/SCRATCH/511024/C77224-P124/C77224-P124.minimised.mol

>  <scratch_subdir>  (5) 
/opt/xchem-fragalysis-2/maxwin/BulkDock/SCRATCH/511024/C77224-P124

>  <fragmenstein_runtime>  (5) 
4.500154256820679

>  <fragmenstein_outcome>  (5) 
too moved

>  <fragmenstein_mode>  (5) 
expansion

>  <fragmenstein_error>  (5) 


$$$$
C77224-P97
     RDKit          3D

 45 45  0  0  0  0  0  0  0  0999 V2000
   17.6634   -3.0703   18.8852 C   0  0  0  0  0  0  0  0  0  0  0  0
   16.6848   -2.3825   17.9335 C   0  0  0  0  0  0  0  0  0  0  0  0
   16.8610   -0.8640   17.9780 C   0  0  0  0  0  0  0  0  0  0  0  0
   16.7440   -2.9431   16.4952 C   0  0  0  0  0  0  0  0  0  0  0  0
   18.1296   -2.9281   15.8125 C   0  0  0  0  0  0  0  0  0  0  0  0
   18.6979   -4.3476   15.7796 C   0  0  0  0  0  0  0  0  0  0  0  0
   18.1129   -2.3543   14.3739 C   0  0  0  0  0  0  0  0  0  0  0  0
   17.6102   -0.9080   14.3837 C   0  0  0  0  0  0  0  0  0  0  0  0
   18.1802   -0.0467   14.9257 O   0  0  0  0  0  0  0  0  0  0  0  0
   16.2397   -0.9060   13.6623 N   0  0  0  0  0  0  0  0  0  0  0  0
   15.2455    0.1332   13.5423 C   0  0  0  0  0  0  0  0  0  0  0  0
   14.3896    0.1549   14.8192 C   0  0  0  0  0  0  0  0  0  0  0  0
   13.7535   -1.2171   15.0836 C   0  0  0  0  0  0  0  0  0  0  0  0
   12.3995   -1.4469   14.4439 C   0  0  0  0  0  0  0  0  0  0  0  0
   11.8018   -2.5819   15.2768 C   0  0  0  0  0  0  0  0  0  0  0  0
   12.7982   -2.8367   16.3925 C   0  0  0  0  0  0  0  0  0  0  0  0
   13.4592   -1.5368   16.4917 N   0  0  0  0  0  0  0  0  0  0  0  0
   17.4984   -2.7318   19.9140 H   0  0  0  0  0  0  0  0  0  0  0  0
   17.5224   -4.1559   18.8686 H   0  0  0  0  0  0  0  0  0  0  0  0
   18.7056   -2.8538   18.6316 H   0  0  0  0  0  0  0  0  0  0  0  0
   15.6795   -2.5994   18.3170 H   0  0  0  0  0  0  0  0  0  0  0  0
   16.6953   -0.4904   18.9944 H   0  0  0  0  0  0  0  0  0  0  0  0
   17.8713   -0.5676   17.6797 H   0  0  0  0  0  0  0  0  0  0  0  0
   16.1518   -0.3574   17.3242 H   0  0  0  0  0  0  0  0  0  0  0  0
   16.0438   -2.3765   15.8931 H   0  0  0  0  0  0  0  0  0  0  0  0
   16.3466   -3.9668   16.5117 H   0  0  0  0  0  0  0  0  0  0  0  0
   18.8188   -2.3058   16.3952 H   0  0  0  0  0  0  0  0  0  0  0  0
   18.0713   -5.0144   15.1769 H   0  0  0  0  0  0  0  0  0  0  0  0
   18.7731   -4.7708   16.7858 H   0  0  0  0  0  0  0  0  0  0  0  0
   19.7036   -4.3511   15.3454 H   0  0  0  0  0  0  0  0  0  0  0  0
   19.1277   -2.3390   13.9577 H   0  0  0  0  0  0  0  0  0  0  0  0
   17.5188   -2.9997   13.7197 H   0  0  0  0  0  0  0  0  0  0  0  0
   16.0835   -1.8094   13.2292 H   0  0  0  0  0  0  0  0  0  0  0  0
   14.6380   -0.0734   12.6565 H   0  0  0  0  0  0  0  0  0  0  0  0
   15.7605    1.0906   13.4206 H   0  0  0  0  0  0  0  0  0  0  0  0
   13.6235    0.9348   14.7429 H   0  0  0  0  0  0  0  0  0  0  0  0
   15.0362    0.4324   15.6574 H   0  0  0  0  0  0  0  0  0  0  0  0
   14.4107   -2.0051   14.7040 H   0  0  0  0  0  0  0  0  0  0  0  0
   12.4900   -1.7298   13.3907 H   0  0  0  0  0  0  0  0  0  0  0  0
   11.7571   -0.5604   14.5056 H   0  0  0  0  0  0  0  0  0  0  0  0
   11.6260   -3.4741   14.6716 H   0  0  0  0  0  0  0  0  0  0  0  0
   10.8344   -2.2591   15.6739 H   0  0  0  0  0  0  0  0  0  0  0  0
   12.3366   -3.1482   17.3252 H   0  0  0  0  0  0  0  0  0  0  0  0
   13.5155   -3.6168   16.1126 H   0  0  0  0  0  0  0  0  0  0  0  0
   14.3173   -1.6115   17.0284 H   0  0  0  0  0  0  0  0  0  0  0  0
  1  2  1  0
  2  3  1  0
  2  4  1  0
  4  5  1  0
  5  6  1  0
  5  7  1  0
  7  8  1  0
  8  9  2  0
  8 10  1  0
 10 11  1  0
 11 12  1  0
 12 13  1  0
 13 14  1  0
 14 15  1  0
 15 16  1  0
 16 17  1  0
 17 13  1  0
  1 18  1  0
  1 19  1  0
  1 20  1  0
  2 21  1  0
  3 22  1  0
  3 23  1  0
  3 24  1  0
  4 25  1  0
  4 26  1  0
  5 27  1  0
  6 28  1  0
  6 29  1  0
  6 30  1  0
  7 31  1  0
  7 32  1  0
 10 33  1  0
 11 34  1  0
 11 35  1  0
 12 36  1  0
 12 37  1  0
 13 38  1  0
 14 39  1  0
 14 40  1  0
 15 41  1  0
 15 42  1  0
 16 43  1  0
 16 44  1  0
 17 45  1  0
M  END
>  <Energy>  (6) 
19.716546601697171

>  <compound_id>  (6) 
77224

>  <target_id>  (6) 
1

>  <reference_id>  (6) 
97

>  <inspiration_ids>  (6) 
[124, 97]

>  <energy_score>  (6) 
-19.895119025633416

>  <distance_score>  (6) 
1.7683890986463788

>  <path>  (6) 
/opt/xchem-fragalysis-2/maxwin/BulkDock/SCRATCH/511024/C77224-P97/C77224-P97.minimised.mol

>  <scratch_subdir>  (6) 
/opt/xchem-fragalysis-2/maxwin/BulkDock/SCRATCH/511024/C77224-P97

>  <fragmenstein_runtime>  (6) 
5.515719652175903

>  <fragmenstein_outcome>  (6) 
too moved

>  <fragmenstein_mode>  (6) 
expansion

>  <fragmenstein_error>  (6) 


$$$$
C77225-P124
     RDKit          3D

 37 37  0  0  0  0  0  0  0  0999 V2000
   17.9101   -2.9622   13.8171 C   0  0  0  0  0  0  0  0  0  0  0  0
   18.2804   -3.4779   15.2045 C   0  0  0  0  0  0  0  0  0  0  0  0
   17.4589   -4.7055   15.5634 C   0  0  0  0  0  0  0  0  0  0  0  0
   18.1359   -2.0688   16.3584 S   0  0  0  0  0  0  0  0  0  0  0  0
   18.2383   -2.9249   17.9784 C   0  0  0  0  0  0  0  0  0  0  0  0
   16.8771   -3.4419   18.4745 C   0  0  0  0  0  0  0  0  0  0  0  0
   16.7769   -4.2207   19.3373 O   0  0  0  0  0  0  0  0  0  0  0  0
   15.7899   -2.6858   17.6759 N   0  0  0  0  0  0  0  0  0  0  0  0
   14.3803   -2.6603   17.8347 C   0  0  0  0  0  0  0  0  0  0  0  0
   13.6056   -2.9316   16.5510 C   0  0  0  0  0  0  0  0  0  0  0  0
   14.0474   -2.2234   15.2511 C   0  0  0  0  0  0  0  0  0  0  0  0
   14.4771   -0.7511   15.3041 C   0  0  0  0  0  0  0  0  0  0  0  0
   13.6148   -0.0538   14.2624 C   0  0  0  0  0  0  0  0  0  0  0  0
   12.4176   -0.8803   14.2567 N   0  0  0  0  0  0  0  0  0  0  0  0
   12.9070   -2.2392   14.2217 C   0  0  0  0  0  0  0  0  0  0  0  0
   18.5114   -2.0895   13.5363 H   0  0  0  0  0  0  0  0  0  0  0  0
   16.8540   -2.6882   13.7411 H   0  0  0  0  0  0  0  0  0  0  0  0
   18.1097   -3.7313   13.0637 H   0  0  0  0  0  0  0  0  0  0  0  0
   19.3386   -3.7630   15.1902 H   0  0  0  0  0  0  0  0  0  0  0  0
   17.7814   -5.1622   16.5028 H   0  0  0  0  0  0  0  0  0  0  0  0
   17.5850   -5.4778   14.7962 H   0  0  0  0  0  0  0  0  0  0  0  0
   16.3901   -4.4851   15.6255 H   0  0  0  0  0  0  0  0  0  0  0  0
   18.9577   -3.7467   17.9282 H   0  0  0  0  0  0  0  0  0  0  0  0
   18.5946   -2.1980   18.7152 H   0  0  0  0  0  0  0  0  0  0  0  0
   16.2323   -2.0170   17.0484 H   0  0  0  0  0  0  0  0  0  0  0  0
   14.1673   -1.6634   18.2219 H   0  0  0  0  0  0  0  0  0  0  0  0
   14.1033   -3.3868   18.6055 H   0  0  0  0  0  0  0  0  0  0  0  0
   13.6522   -4.0116   16.3563 H   0  0  0  0  0  0  0  0  0  0  0  0
   12.5460   -2.7308   16.7463 H   0  0  0  0  0  0  0  0  0  0  0  0
   14.8991   -2.7855   14.8585 H   0  0  0  0  0  0  0  0  0  0  0  0
   15.5355   -0.6403   15.0457 H   0  0  0  0  0  0  0  0  0  0  0  0
   14.3469   -0.3091   16.2925 H   0  0  0  0  0  0  0  0  0  0  0  0
   14.1005   -0.0677   13.2791 H   0  0  0  0  0  0  0  0  0  0  0  0
   13.4177    0.9873   14.5277 H   0  0  0  0  0  0  0  0  0  0  0  0
   11.8011   -0.6668   13.4738 H   0  0  0  0  0  0  0  0  0  0  0  0
   13.2959   -2.4529   13.2200 H   0  0  0  0  0  0  0  0  0  0  0  0
   12.1152   -2.9596   14.4471 H   0  0  0  0  0  0  0  0  0  0  0  0
  1  2  1  0
  2  3  1  0
  2  4  1  0
  4  5  1  0
  5  6  1  0
  6  7  2  0
  6  8  1  0
  8  9  1  0
  9 10  1  0
 10 11  1  0
 11 12  1  0
 12 13  1  0
 13 14  1  0
 14 15  1  0
 15 11  1  0
  1 16  1  0
  1 17  1  0
  1 18  1  0
  2 19  1  0
  3 20  1  0
  3 21  1  0
  3 22  1  0
  5 23  1  0
  5 24  1  0
  8 25  1  0
  9 26  1  0
  9 27  1  0
 10 28  1  0
 10 29  1  0
 11 30  1  0
 12 31  1  0
 12 32  1  0
 13 33  1  0
 13 34  1  0
 14 35  1  0
 15 36  1  0
 15 37  1  0
M  END
>  <Energy>  (7) 
37.777262056284009

>  <compound_id>  (7) 
77225

>  <target_id>  (7) 
1

>  <reference_id>  (7) 
124

>  <inspiration_ids>  (7) 
[124, 97]

>  <energy_score>  (7) 
-14.054874539912277

>  <distance_score>  (7) 
2.681554350767695

>  <path>  (7) 
/opt/xchem-fragalysis-2/maxwin/BulkDock/SCRATCH/511024/C77225-P124/C77225-P124.minimised.mol

>  <scratch_subdir>  (7) 
/opt/xchem-fragalysis-2/maxwin/BulkDock/SCRATCH/511024/C77225-P124

>  <fragmenstein_runtime>  (7) 
7.909695386886597

>  <fragmenstein_outcome>  (7) 
too moved

>  <fragmenstein_mode>  (7) 
expansion

>  <fragmenstein_error>  (7) 


$$$$
C77225-P97
     RDKit          3D

 37 37  0  0  0  0  0  0  0  0999 V2000
   17.0208   -2.6968   14.4060 C   0  0  0  0  0  0  0  0  0  0  0  0
   17.7093   -3.2979   15.6221 C   0  0  0  0  0  0  0  0  0  0  0  0
   17.6390   -4.8177   15.6061 C   0  0  0  0  0  0  0  0  0  0  0  0
   16.9394   -2.7252   17.1788 S   0  0  0  0  0  0  0  0  0  0  0  0
   17.9677   -1.2438   17.4970 C   0  0  0  0  0  0  0  0  0  0  0  0
   17.3513   -0.0289   16.8112 C   0  0  0  0  0  0  0  0  0  0  0  0
   17.8653    0.5502   15.9377 O   0  0  0  0  0  0  0  0  0  0  0  0
   15.9743    0.1929   17.4913 N   0  0  0  0  0  0  0  0  0  0  0  0
   14.9160    1.1065   17.1740 C   0  0  0  0  0  0  0  0  0  0  0  0
   13.6818    0.3444   16.6986 C   0  0  0  0  0  0  0  0  0  0  0  0
   13.8897   -0.4859   15.4338 C   0  0  0  0  0  0  0  0  0  0  0  0
   14.2735    0.3459   14.2156 C   0  0  0  0  0  0  0  0  0  0  0  0
   13.4283   -0.2057   13.0836 C   0  0  0  0  0  0  0  0  0  0  0  0
   12.8659   -1.4628   13.5785 N   0  0  0  0  0  0  0  0  0  0  0  0
   12.6332   -1.2311   15.0012 C   0  0  0  0  0  0  0  0  0  0  0  0
   17.1073   -1.6068   14.3914 H   0  0  0  0  0  0  0  0  0  0  0  0
   15.9585   -2.9569   14.3693 H   0  0  0  0  0  0  0  0  0  0  0  0
   17.4832   -3.0669   13.4844 H   0  0  0  0  0  0  0  0  0  0  0  0
   18.7668   -3.0133   15.6155 H   0  0  0  0  0  0  0  0  0  0  0  0
   18.1707   -5.2541   16.4593 H   0  0  0  0  0  0  0  0  0  0  0  0
   18.1099   -5.2115   14.6983 H   0  0  0  0  0  0  0  0  0  0  0  0
   16.6054   -5.1819   15.6228 H   0  0  0  0  0  0  0  0  0  0  0  0
   18.0039   -1.0595   18.5759 H   0  0  0  0  0  0  0  0  0  0  0  0
   18.9964   -1.3876   17.1550 H   0  0  0  0  0  0  0  0  0  0  0  0
   15.8056   -0.5483   18.1669 H   0  0  0  0  0  0  0  0  0  0  0  0
   15.2742    1.8121   16.4193 H   0  0  0  0  0  0  0  0  0  0  0  0
   14.6817    1.6623   18.0871 H   0  0  0  0  0  0  0  0  0  0  0  0
   13.3739   -0.3442   17.4902 H   0  0  0  0  0  0  0  0  0  0  0  0
   12.8659    1.0604   16.5448 H   0  0  0  0  0  0  0  0  0  0  0  0
   14.6775   -1.2269   15.6095 H   0  0  0  0  0  0  0  0  0  0  0  0
   15.3424    0.2341   14.0026 H   0  0  0  0  0  0  0  0  0  0  0  0
   14.0693    1.4138   14.3494 H   0  0  0  0  0  0  0  0  0  0  0  0
   14.0135   -0.3603   12.1717 H   0  0  0  0  0  0  0  0  0  0  0  0
   12.6165    0.4909   12.8440 H   0  0  0  0  0  0  0  0  0  0  0  0
   13.5690   -2.1943   13.4718 H   0  0  0  0  0  0  0  0  0  0  0  0
   12.5027   -2.1715   15.5460 H   0  0  0  0  0  0  0  0  0  0  0  0
   11.7273   -0.6291   15.1400 H   0  0  0  0  0  0  0  0  0  0  0  0
  1  2  1  0
  2  3  1  0
  2  4  1  0
  4  5  1  0
  5  6  1  0
  6  7  2  0
  6  8  1  0
  8  9  1  0
  9 10  1  0
 10 11  1  0
 11 12  1  0
 12 13  1  0
 13 14  1  0
 14 15  1  0
 15 11  1  0
  1 16  1  0
  1 17  1  0
  1 18  1  0
  2 19  1  0
  3 20  1  0
  3 21  1  0
  3 22  1  0
  5 23  1  0
  5 24  1  0
  8 25  1  0
  9 26  1  0
  9 27  1  0
 10 28  1  0
 10 29  1  0
 11 30  1  0
 12 31  1  0
 12 32  1  0
 13 33  1  0
 13 34  1  0
 14 35  1  0
 15 36  1  0
 15 37  1  0
M  END
>  <Energy>  (8) 
30.481361791495218

>  <compound_id>  (8) 
77225

>  <target_id>  (8) 
1

>  <reference_id>  (8) 
97

>  <inspiration_ids>  (8) 
[124, 97]

>  <energy_score>  (8) 
-21.35077480470187

>  <distance_score>  (8) 
2.045766161754116

>  <path>  (8) 
/opt/xchem-fragalysis-2/maxwin/BulkDock/SCRATCH/511024/C77225-P97/C77225-P97.minimised.mol

>  <scratch_subdir>  (8) 
/opt/xchem-fragalysis-2/maxwin/BulkDock/SCRATCH/511024/C77225-P97

>  <fragmenstein_runtime>  (8) 
10.636120796203613

>  <fragmenstein_outcome>  (8) 
too moved

>  <fragmenstein_mode>  (8) 
expansion

>  <fragmenstein_error>  (8) 


$$$$
C77226-P124
     RDKit          3D

 30 30  0  0  0  0  0  0  0  0999 V2000
   18.1879   -3.7020   14.1997 C   0  0  0  0  0  0  0  0  0  0  0  0
   17.7025   -3.8148   15.6301 C   0  0  0  0  0  0  0  0  0  0  0  0
   18.3376   -4.8494   16.2384 F   0  0  0  0  0  0  0  0  0  0  0  0
   16.3770   -4.1481   15.6137 F   0  0  0  0  0  0  0  0  0  0  0  0
   17.9337   -2.4749   16.3617 C   0  0  0  0  0  0  0  0  0  0  0  0
   18.7983   -2.2874   17.1255 O   0  0  0  0  0  0  0  0  0  0  0  0
   16.8298   -1.5145   15.8339 N   0  0  0  0  0  0  0  0  0  0  0  0
   16.6268   -0.1195   16.0645 C   0  0  0  0  0  0  0  0  0  0  0  0
   15.1580    0.1946   16.2815 C   0  0  0  0  0  0  0  0  0  0  0  0
   14.2113   -0.0370   15.0984 C   0  0  0  0  0  0  0  0  0  0  0  0
   14.7448    0.2762   13.7155 C   0  0  0  0  0  0  0  0  0  0  0  0
   13.6555   -0.3137   12.8494 C   0  0  0  0  0  0  0  0  0  0  0  0
   13.3590   -1.5919   13.4970 N   0  0  0  0  0  0  0  0  0  0  0  0
   13.5808   -1.4242   14.9345 C   0  0  0  0  0  0  0  0  0  0  0  0
   19.1997   -3.2849   14.1585 H   0  0  0  0  0  0  0  0  0  0  0  0
   17.5292   -3.0772   13.5895 H   0  0  0  0  0  0  0  0  0  0  0  0
   18.2350   -4.6950   13.7440 H   0  0  0  0  0  0  0  0  0  0  0  0
   16.2875   -1.9838   15.1116 H   0  0  0  0  0  0  0  0  0  0  0  0
   17.2065    0.1591   16.9510 H   0  0  0  0  0  0  0  0  0  0  0  0
   17.0476    0.4328   15.2195 H   0  0  0  0  0  0  0  0  0  0  0  0
   15.0986    1.2575   16.5508 H   0  0  0  0  0  0  0  0  0  0  0  0
   14.7969   -0.3625   17.1537 H   0  0  0  0  0  0  0  0  0  0  0  0
   13.3888    0.6655   15.2536 H   0  0  0  0  0  0  0  0  0  0  0  0
   14.8707    1.3502   13.5487 H   0  0  0  0  0  0  0  0  0  0  0  0
   15.6963   -0.2247   13.5069 H   0  0  0  0  0  0  0  0  0  0  0  0
   12.7693    0.3321   12.8512 H   0  0  0  0  0  0  0  0  0  0  0  0
   13.9862   -0.4556   11.8169 H   0  0  0  0  0  0  0  0  0  0  0  0
   12.3863   -1.8511   13.3158 H   0  0  0  0  0  0  0  0  0  0  0  0
   12.6250   -1.5053   15.4555 H   0  0  0  0  0  0  0  0  0  0  0  0
   14.2208   -2.2291   15.3022 H   0  0  0  0  0  0  0  0  0  0  0  0
  1  2  1  0
  2  3  1  0
  2  4  1  0
  2  5  1  0
  5  6  2  0
  5  7  1  0
  7  8  1  0
  8  9  1  0
  9 10  1  0
 10 11  1  0
 11 12  1  0
 12 13  1  0
 13 14  1  0
 14 10  1  0
  1 15  1  0
  1 16  1  0
  1 17  1  0
  7 18  1  0
  8 19  1  0
  8 20  1  0
  9 21  1  0
  9 22  1  0
 10 23  1  0
 11 24  1  0
 11 25  1  0
 12 26  1  0
 12 27  1  0
 13 28  1  0
 14 29  1  0
 14 30  1  0
M  END
>  <Energy>  (9) 
72.528573607112662

>  <compound_id>  (9) 
77226

>  <target_id>  (9) 
1

>  <reference_id>  (9) 
124

>  <inspiration_ids>  (9) 
[124, 97]

>  <energy_score>  (9) 
-5.681690542797071

>  <distance_score>  (9) 
1.8432106705715243

>  <path>  (9) 
/opt/xchem-fragalysis-2/maxwin/BulkDock/SCRATCH/511024/C77226-P124/C77226-P124.minimised.mol

>  <scratch_subdir>  (9) 
/opt/xchem-fragalysis-2/maxwin/BulkDock/SCRATCH/511024/C77226-P124

>  <fragmenstein_runtime>  (9) 
8.980189561843872

>  <fragmenstein_outcome>  (9) 
too moved

>  <fragmenstein_mode>  (9) 
expansion

>  <fragmenstein_error>  (9) 


$$$$
C77226-P97
     RDKit          3D

 30 30  0  0  0  0  0  0  0  0999 V2000
   17.7995   -3.1635   14.2030 C   0  0  0  0  0  0  0  0  0  0  0  0
   17.4053   -3.4619   15.6342 C   0  0  0  0  0  0  0  0  0  0  0  0
   18.2017   -4.4481   16.1255 F   0  0  0  0  0  0  0  0  0  0  0  0
   16.1340   -3.9656   15.6342 F   0  0  0  0  0  0  0  0  0  0  0  0
   17.4907   -2.1656   16.4735 C   0  0  0  0  0  0  0  0  0  0  0  0
   18.4546   -1.8220   17.0400 O   0  0  0  0  0  0  0  0  0  0  0  0
   16.1193   -1.4502   16.2904 N   0  0  0  0  0  0  0  0  0  0  0  0
   15.6308   -0.2231   16.8419 C   0  0  0  0  0  0  0  0  0  0  0  0
   14.1215   -0.2127   17.0345 C   0  0  0  0  0  0  0  0  0  0  0  0
   13.2390   -0.2479   15.7820 C   0  0  0  0  0  0  0  0  0  0  0  0
   13.8217    0.3532   14.5164 C   0  0  0  0  0  0  0  0  0  0  0  0
   12.8633   -0.1629   13.4685 C   0  0  0  0  0  0  0  0  0  0  0  0
   12.5955   -1.5423   13.8794 N   0  0  0  0  0  0  0  0  0  0  0  0
   12.7457   -1.6245   15.3348 C   0  0  0  0  0  0  0  0  0  0  0  0
   18.7604   -2.6404   14.1585 H   0  0  0  0  0  0  0  0  0  0  0  0
   17.0453   -2.5514   13.6987 H   0  0  0  0  0  0  0  0  0  0  0  0
   17.9155   -4.0947   13.6432 H   0  0  0  0  0  0  0  0  0  0  0  0
   15.5291   -1.9995   15.6677 H   0  0  0  0  0  0  0  0  0  0  0  0
   16.1304   -0.0819   17.8068 H   0  0  0  0  0  0  0  0  0  0  0  0
   15.9658    0.5949   16.1968 H   0  0  0  0  0  0  0  0  0  0  0  0
   13.8889    0.7169   17.5696 H   0  0  0  0  0  0  0  0  0  0  0  0
   13.8389   -1.0339   17.7004 H   0  0  0  0  0  0  0  0  0  0  0  0
   12.3347    0.3311   16.0258 H   0  0  0  0  0  0  0  0  0  0  0  0
   13.8515    1.4463   14.5496 H   0  0  0  0  0  0  0  0  0  0  0  0
   14.8288   -0.0172   14.2984 H   0  0  0  0  0  0  0  0  0  0  0  0
   11.9343    0.4194   13.4698 H   0  0  0  0  0  0  0  0  0  0  0  0
   13.3053   -0.1175   12.4700 H   0  0  0  0  0  0  0  0  0  0  0  0
   11.6406   -1.7979   13.5989 H   0  0  0  0  0  0  0  0  0  0  0  0
   11.7904   -1.8674   15.8127 H   0  0  0  0  0  0  0  0  0  0  0  0
   13.4500   -2.4238   15.5796 H   0  0  0  0  0  0  0  0  0  0  0  0
  1  2  1  0
  2  3  1  0
  2  4  1  0
  2  5  1  0
  5  6  2  0
  5  7  1  0
  7  8  1  0
  8  9  1  0
  9 10  1  0
 10 11  1  0
 11 12  1  0
 12 13  1  0
 13 14  1  0
 14 10  1  0
  1 15  1  0
  1 16  1  0
  1 17  1  0
  7 18  1  0
  8 19  1  0
  8 20  1  0
  9 21  1  0
  9 22  1  0
 10 23  1  0
 11 24  1  0
 11 25  1  0
 12 26  1  0
 12 27  1  0
 13 28  1  0
 14 29  1  0
 14 30  1  0
M  END
>  <Energy>  (10) 
72.041733227121057

>  <compound_id>  (10) 
77226

>  <target_id>  (10) 
1

>  <reference_id>  (10) 
97

>  <inspiration_ids>  (10) 
[124, 97]

>  <energy_score>  (10) 
-6.168530922788307

>  <distance_score>  (10) 
1.5424722739056689

>  <path>  (10) 
/opt/xchem-fragalysis-2/maxwin/BulkDock/SCRATCH/511024/C77226-P97/C77226-P97.minimised.mol

>  <scratch_subdir>  (10) 
/opt/xchem-fragalysis-2/maxwin/BulkDock/SCRATCH/511024/C77226-P97

>  <fragmenstein_runtime>  (10) 
9.185904264450073

>  <fragmenstein_outcome>  (10) 
too moved

>  <fragmenstein_mode>  (10) 
expansion

>  <fragmenstein_error>  (10) 


$$$$
C77227-P124
     RDKit          3D

 40 40  0  0  0  0  0  0  0  0999 V2000
   16.1363   -3.3713   15.9529 C   0  0  0  0  0  0  0  0  0  0  0  0
   16.7160   -2.4891   17.0584 C   0  0  0  0  0  0  0  0  0  0  0  0
   15.6318   -1.5546   17.5956 C   0  0  0  0  0  0  0  0  0  0  0  0
   18.0088   -1.7151   16.6842 C   0  0  0  0  0  0  0  0  0  0  0  0
   19.1776   -2.6179   16.7641 C   0  0  0  0  0  0  0  0  0  0  0  0
   20.0947   -3.3212   16.8822 N   0  0  0  0  0  0  0  0  0  0  0  0
   18.0505   -1.0510   15.2914 C   0  0  0  0  0  0  0  0  0  0  0  0
   17.8114   -1.6909   14.3015 O   0  0  0  0  0  0  0  0  0  0  0  0
   18.4914    0.3098   15.4400 N   0  0  0  0  0  0  0  0  0  0  0  0
   18.8951    1.3127   14.4233 C   0  0  0  0  0  0  0  0  0  0  0  0
   17.2768    1.2539   15.5648 C   0  0  0  0  0  0  0  0  0  0  0  0
   16.1368    1.4279   14.4996 C   0  0  0  0  0  0  0  0  0  0  0  0
   15.4022    0.1998   14.2183 N   0  0  0  0  0  0  0  0  0  0  0  0
   13.9627    0.3064   14.4565 C   0  0  0  0  0  0  0  0  0  0  0  0
   13.4279   -0.9739   13.8384 C   0  0  0  0  0  0  0  0  0  0  0  0
   14.4068   -1.2861   12.7118 C   0  0  0  0  0  0  0  0  0  0  0  0
   15.4854   -0.2181   12.8155 C   0  0  0  0  0  0  0  0  0  0  0  0
   16.8931   -4.0480   15.5439 H   0  0  0  0  0  0  0  0  0  0  0  0
   15.3230   -3.9892   16.3487 H   0  0  0  0  0  0  0  0  0  0  0  0
   15.7184   -2.7786   15.1361 H   0  0  0  0  0  0  0  0  0  0  0  0
   16.9662   -3.1614   17.8924 H   0  0  0  0  0  0  0  0  0  0  0  0
   16.0092   -0.9471   18.4246 H   0  0  0  0  0  0  0  0  0  0  0  0
   14.7781   -2.1295   17.9711 H   0  0  0  0  0  0  0  0  0  0  0  0
   15.2611   -0.8834   16.8209 H   0  0  0  0  0  0  0  0  0  0  0  0
   18.1669   -0.9418   17.4488 H   0  0  0  0  0  0  0  0  0  0  0  0
   19.9147    0.9864   14.1661 H   0  0  0  0  0  0  0  0  0  0  0  0
   18.3853    1.1988   13.4603 H   0  0  0  0  0  0  0  0  0  0  0  0
   19.0564    2.3463   14.7605 H   0  0  0  0  0  0  0  0  0  0  0  0
   16.7522    0.8332   16.4364 H   0  0  0  0  0  0  0  0  0  0  0  0
   17.5712    2.2355   15.9786 H   0  0  0  0  0  0  0  0  0  0  0  0
   15.4516    2.1715   14.9320 H   0  0  0  0  0  0  0  0  0  0  0  0
   16.5000    1.9107   13.5857 H   0  0  0  0  0  0  0  0  0  0  0  0
   13.5298    1.1794   13.9511 H   0  0  0  0  0  0  0  0  0  0  0  0
   13.7406    0.3693   15.5210 H   0  0  0  0  0  0  0  0  0  0  0  0
   13.4291   -1.7895   14.5710 H   0  0  0  0  0  0  0  0  0  0  0  0
   12.4031   -0.8527   13.4760 H   0  0  0  0  0  0  0  0  0  0  0  0
   13.9279   -1.2535   11.7309 H   0  0  0  0  0  0  0  0  0  0  0  0
   14.8314   -2.2864   12.8449 H   0  0  0  0  0  0  0  0  0  0  0  0
   16.4682   -0.6041   12.5347 H   0  0  0  0  0  0  0  0  0  0  0  0
   15.2427    0.6103   12.1363 H   0  0  0  0  0  0  0  0  0  0  0  0
  1  2  1  0
  2  3  1  0
  2  4  1  0
  4  5  1  0
  5  6  3  0
  4  7  1  0
  7  8  2  0
  7  9  1  0
  9 10  1  0
  9 11  1  0
 11 12  1  0
 12 13  1  0
 13 14  1  0
 14 15  1  0
 15 16  1  0
 16 17  1  0
 17 13  1  0
  1 18  1  0
  1 19  1  0
  1 20  1  0
  2 21  1  0
  3 22  1  0
  3 23  1  0
  3 24  1  0
  4 25  1  0
 10 26  1  0
 10 27  1  0
 10 28  1  0
 11 29  1  0
 11 30  1  0
 12 31  1  0
 12 32  1  0
 14 33  1  0
 14 34  1  0
 15 35  1  0
 15 36  1  0
 16 37  1  0
 16 38  1  0
 17 39  1  0
 17 40  1  0
M  END
>  <Energy>  (11) 
104.06799271715349

>  <compound_id>  (11) 
77227

>  <target_id>  (11) 
1

>  <reference_id>  (11) 
124

>  <inspiration_ids>  (11) 
[124, 97]

>  <energy_score>  (11) 
46.73566597310027

>  <distance_score>  (11) 
2.441497626130716

>  <path>  (11) 
/opt/xchem-fragalysis-2/maxwin/BulkDock/SCRATCH/511024/C77227-P124/C77227-P124.minimised.mol

>  <scratch_subdir>  (11) 
/opt/xchem-fragalysis-2/maxwin/BulkDock/SCRATCH/511024/C77227-P124

>  <fragmenstein_runtime>  (11) 
6.257408618927002

>  <fragmenstein_outcome>  (11) 
too moved

>  <fragmenstein_mode>  (11) 
expansion

>  <fragmenstein_error>  (11) 


$$$$
C77227-P97
     RDKit          3D

 40 40  0  0  0  0  0  0  0  0999 V2000
   16.2805   -2.8084   15.3165 C   0  0  0  0  0  0  0  0  0  0  0  0
   16.8936   -2.4126   16.6533 C   0  0  0  0  0  0  0  0  0  0  0  0
   15.8050   -2.1937   17.7025 C   0  0  0  0  0  0  0  0  0  0  0  0
   17.8871   -1.2200   16.6036 C   0  0  0  0  0  0  0  0  0  0  0  0
   19.2769   -1.7267   16.5328 C   0  0  0  0  0  0  0  0  0  0  0  0
   20.3664   -2.1299   16.5352 N   0  0  0  0  0  0  0  0  0  0  0  0
   17.7271   -0.2008   15.4524 C   0  0  0  0  0  0  0  0  0  0  0  0
   17.9396   -0.4720   14.3252 O   0  0  0  0  0  0  0  0  0  0  0  0
   17.3681    1.1383   16.0959 N   0  0  0  0  0  0  0  0  0  0  0  0
   17.2809    2.5070   15.5061 C   0  0  0  0  0  0  0  0  0  0  0  0
   15.8496    1.3437   16.1389 C   0  0  0  0  0  0  0  0  0  0  0  0
   15.0159    1.0453   14.8409 C   0  0  0  0  0  0  0  0  0  0  0  0
   14.1368   -0.1181   14.9162 N   0  0  0  0  0  0  0  0  0  0  0  0
   13.0212   -0.0295   15.8453 C   0  0  0  0  0  0  0  0  0  0  0  0
   12.2059   -1.2464   15.4508 C   0  0  0  0  0  0  0  0  0  0  0  0
   12.2886   -1.2320   13.9374 C   0  0  0  0  0  0  0  0  0  0  0  0
   13.5565   -0.4570   13.6112 C   0  0  0  0  0  0  0  0  0  0  0  0
   15.7079   -2.0072   14.8615 H   0  0  0  0  0  0  0  0  0  0  0  0
   17.0606   -3.1082   14.6088 H   0  0  0  0  0  0  0  0  0  0  0  0
   15.6139   -3.6658   15.4482 H   0  0  0  0  0  0  0  0  0  0  0  0
   17.4447   -3.2966   17.0078 H   0  0  0  0  0  0  0  0  0  0  0  0
   15.2169   -3.1084   17.8396 H   0  0  0  0  0  0  0  0  0  0  0  0
   15.1105   -1.4070   17.4159 H   0  0  0  0  0  0  0  0  0  0  0  0
   16.2367   -1.9366   18.6754 H   0  0  0  0  0  0  0  0  0  0  0  0
   17.8240   -0.6767   17.5563 H   0  0  0  0  0  0  0  0  0  0  0  0
   18.3353    2.7264   15.2770 H   0  0  0  0  0  0  0  0  0  0  0  0
   16.8228    2.6009   14.5139 H   0  0  0  0  0  0  0  0  0  0  0  0
   17.0201    3.3021   16.2203 H   0  0  0  0  0  0  0  0  0  0  0  0
   15.4812    2.2296   16.6877 H   0  0  0  0  0  0  0  0  0  0  0  0
   15.5698    0.5628   16.8549 H   0  0  0  0  0  0  0  0  0  0  0  0
   14.4265    1.9418   14.6054 H   0  0  0  0  0  0  0  0  0  0  0  0
   15.6946    0.8948   13.9932 H   0  0  0  0  0  0  0  0  0  0  0  0
   12.4392    0.8885   15.6952 H   0  0  0  0  0  0  0  0  0  0  0  0
   13.3298   -0.0800   16.8917 H   0  0  0  0  0  0  0  0  0  0  0  0
   12.6601   -2.1627   15.8479 H   0  0  0  0  0  0  0  0  0  0  0  0
   11.1728   -1.1933   15.8044 H   0  0  0  0  0  0  0  0  0  0  0  0
   11.4317   -0.6858   13.5342 H   0  0  0  0  0  0  0  0  0  0  0  0
   12.2912   -2.2445   13.5234 H   0  0  0  0  0  0  0  0  0  0  0  0
   14.2513   -1.0617   13.0193 H   0  0  0  0  0  0  0  0  0  0  0  0
   13.2978    0.4355   13.0276 H   0  0  0  0  0  0  0  0  0  0  0  0
  1  2  1  0
  2  3  1  0
  2  4  1  0
  4  5  1  0
  5  6  3  0
  4  7  1  0
  7  8  2  0
  7  9  1  0
  9 10  1  0
  9 11  1  0
 11 12  1  0
 12 13  1  0
 13 14  1  0
 14 15  1  0
 15 16  1  0
 16 17  1  0
 17 13  1  0
  1 18  1  0
  1 19  1  0
  1 20  1  0
  2 21  1  0
  3 22  1  0
  3 23  1  0
  3 24  1  0
  4 25  1  0
 10 26  1  0
 10 27  1  0
 10 28  1  0
 11 29  1  0
 11 30  1  0
 12 31  1  0
 12 32  1  0
 14 33  1  0
 14 34  1  0
 15 35  1  0
 15 36  1  0
 16 37  1  0
 16 38  1  0
 17 39  1  0
 17 40  1  0
M  END
>  <Energy>  (12) 
115.45870890917222

>  <compound_id>  (12) 
77227

>  <target_id>  (12) 
1

>  <reference_id>  (12) 
97

>  <inspiration_ids>  (12) 
[124, 97]

>  <energy_score>  (12) 
60.46587057327588

>  <distance_score>  (12) 
2.330159038111226

>  <path>  (12) 
/opt/xchem-fragalysis-2/maxwin/BulkDock/SCRATCH/511024/C77227-P97/C77227-P97.minimised.mol

>  <scratch_subdir>  (12) 
/opt/xchem-fragalysis-2/maxwin/BulkDock/SCRATCH/511024/C77227-P97

>  <fragmenstein_runtime>  (12) 
4.3238866329193115

>  <fragmenstein_outcome>  (12) 
too moved

>  <fragmenstein_mode>  (12) 
expansion

>  <fragmenstein_error>  (12) 


$$$$
C77228-P124
     RDKit          3D

 42 42  0  0  0  0  0  0  0  0999 V2000
   19.1324   -4.3519   14.7684 C   0  0  0  0  0  0  0  0  0  0  0  0
   18.1521   -3.2392   14.4327 C   0  0  0  0  0  0  0  0  0  0  0  0
   17.0934   -3.0237   15.5114 C   0  0  0  0  0  0  0  0  0  0  0  0
   17.5902   -2.5258   16.8765 C   0  0  0  0  0  0  0  0  0  0  0  0
   16.4474   -2.4901   17.8951 C   0  0  0  0  0  0  0  0  0  0  0  0
   18.3487   -1.1805   16.8471 C   0  0  0  0  0  0  0  0  0  0  0  0
   17.4479    0.0541   16.7846 C   0  0  0  0  0  0  0  0  0  0  0  0
   17.1774    0.6753   17.7338 O   0  0  0  0  0  0  0  0  0  0  0  0
   16.9758    0.2056   15.3198 N   0  0  0  0  0  0  0  0  0  0  0  0
   16.0034    1.0903   14.7396 C   0  0  0  0  0  0  0  0  0  0  0  0
   14.5805    0.6406   15.0764 C   0  0  0  0  0  0  0  0  0  0  0  0
   14.1691   -0.6501   14.3432 C   0  0  0  0  0  0  0  0  0  0  0  0
   13.7669   -1.8197   15.2503 C   0  0  0  0  0  0  0  0  0  0  0  0
   12.3403   -2.1727   14.8932 C   0  0  0  0  0  0  0  0  0  0  0  0
   12.2193   -1.7044   13.5289 N   0  0  0  0  0  0  0  0  0  0  0  0
   12.9512   -0.4444   13.4519 C   0  0  0  0  0  0  0  0  0  0  0  0
   19.7507   -4.0932   15.6329 H   0  0  0  0  0  0  0  0  0  0  0  0
   19.8034   -4.5292   13.9218 H   0  0  0  0  0  0  0  0  0  0  0  0
   18.6065   -5.2874   14.9842 H   0  0  0  0  0  0  0  0  0  0  0  0
   18.7053   -2.3170   14.2311 H   0  0  0  0  0  0  0  0  0  0  0  0
   17.6452   -3.4938   13.4959 H   0  0  0  0  0  0  0  0  0  0  0  0
   16.3864   -2.3017   15.1134 H   0  0  0  0  0  0  0  0  0  0  0  0
   16.5382   -3.9607   15.6477 H   0  0  0  0  0  0  0  0  0  0  0  0
   18.3043   -3.2731   17.2466 H   0  0  0  0  0  0  0  0  0  0  0  0
   15.6740   -1.7688   17.6230 H   0  0  0  0  0  0  0  0  0  0  0  0
   15.9724   -3.4737   17.9784 H   0  0  0  0  0  0  0  0  0  0  0  0
   16.8238   -2.2213   18.8881 H   0  0  0  0  0  0  0  0  0  0  0  0
   19.0900   -1.1387   16.0434 H   0  0  0  0  0  0  0  0  0  0  0  0
   18.9290   -1.0885   17.7757 H   0  0  0  0  0  0  0  0  0  0  0  0
   17.4730   -0.4540   14.7343 H   0  0  0  0  0  0  0  0  0  0  0  0
   16.1775    2.0833   15.1665 H   0  0  0  0  0  0  0  0  0  0  0  0
   16.1712    1.1354   13.6595 H   0  0  0  0  0  0  0  0  0  0  0  0
   13.9091    1.4642   14.8077 H   0  0  0  0  0  0  0  0  0  0  0  0
   14.4995    0.5118   16.1607 H   0  0  0  0  0  0  0  0  0  0  0  0
   14.9970   -0.9955   13.7092 H   0  0  0  0  0  0  0  0  0  0  0  0
   14.3893   -2.6839   15.0150 H   0  0  0  0  0  0  0  0  0  0  0  0
   13.9079   -1.6345   16.3125 H   0  0  0  0  0  0  0  0  0  0  0  0
   11.6201   -1.6690   15.5356 H   0  0  0  0  0  0  0  0  0  0  0  0
   12.1488   -3.2458   14.9722 H   0  0  0  0  0  0  0  0  0  0  0  0
   11.2280   -1.5599   13.2961 H   0  0  0  0  0  0  0  0  0  0  0  0
   12.3141    0.3799   13.7710 H   0  0  0  0  0  0  0  0  0  0  0  0
   13.2690   -0.2274   12.4277 H   0  0  0  0  0  0  0  0  0  0  0  0
  1  2  1  0
  2  3  1  0
  3  4  1  0
  4  5  1  0
  4  6  1  0
  6  7  1  0
  7  8  2  0
  7  9  1  0
  9 10  1  0
 10 11  1  0
 11 12  1  0
 12 13  1  0
 13 14  1  0
 14 15  1  0
 15 16  1  0
 16 12  1  0
  1 17  1  0
  1 18  1  0
  1 19  1  0
  2 20  1  0
  2 21  1  0
  3 22  1  0
  3 23  1  0
  4 24  1  0
  5 25  1  0
  5 26  1  0
  5 27  1  0
  6 28  1  0
  6 29  1  0
  9 30  1  0
 10 31  1  0
 10 32  1  0
 11 33  1  0
 11 34  1  0
 12 35  1  0
 13 36  1  0
 13 37  1  0
 14 38  1  0
 14 39  1  0
 15 40  1  0
 16 41  1  0
 16 42  1  0
M  END
>  <Energy>  (13) 
11.893086180986662

>  <compound_id>  (13) 
77228

>  <target_id>  (13) 
1

>  <reference_id>  (13) 
124

>  <inspiration_ids>  (13) 
[124, 97]

>  <energy_score>  (13) 
-9.931100098298998

>  <distance_score>  (13) 
2.9484557766953685

>  <path>  (13) 
/opt/xchem-fragalysis-2/maxwin/BulkDock/SCRATCH/511024/C77228-P124/C77228-P124.minimised.mol

>  <scratch_subdir>  (13) 
/opt/xchem-fragalysis-2/maxwin/BulkDock/SCRATCH/511024/C77228-P124

>  <fragmenstein_runtime>  (13) 
12.106087923049927

>  <fragmenstein_outcome>  (13) 
too moved

>  <fragmenstein_mode>  (13) 
expansion

>  <fragmenstein_error>  (13) 


$$$$
C77228-P97
     RDKit          3D

 42 42  0  0  0  0  0  0  0  0999 V2000
   18.6281   -3.6335   14.1863 C   0  0  0  0  0  0  0  0  0  0  0  0
   17.3996   -2.7393   14.2294 C   0  0  0  0  0  0  0  0  0  0  0  0
   16.5899   -2.8798   15.5189 C   0  0  0  0  0  0  0  0  0  0  0  0
   17.3127   -2.5253   16.8273 C   0  0  0  0  0  0  0  0  0  0  0  0
   16.3647   -2.7085   18.0148 C   0  0  0  0  0  0  0  0  0  0  0  0
   18.0166   -1.1516   16.8722 C   0  0  0  0  0  0  0  0  0  0  0  0
   17.1356    0.0128   17.3240 C   0  0  0  0  0  0  0  0  0  0  0  0
   17.1081    0.3777   18.4308 O   0  0  0  0  0  0  0  0  0  0  0  0
   16.3022    0.4581   16.1025 N   0  0  0  0  0  0  0  0  0  0  0  0
   15.3308    1.5074   15.9687 C   0  0  0  0  0  0  0  0  0  0  0  0
   14.4135    1.3420   14.7639 C   0  0  0  0  0  0  0  0  0  0  0  0
   13.8299   -0.0615   14.5943 C   0  0  0  0  0  0  0  0  0  0  0  0
   13.1533   -0.6655   15.8164 C   0  0  0  0  0  0  0  0  0  0  0  0
   12.1709   -1.6777   15.2395 C   0  0  0  0  0  0  0  0  0  0  0  0
   12.1562   -1.4425   13.7975 N   0  0  0  0  0  0  0  0  0  0  0  0
   12.7124   -0.1130   13.5706 C   0  0  0  0  0  0  0  0  0  0  0  0
   19.1064   -3.5675   13.2038 H   0  0  0  0  0  0  0  0  0  0  0  0
   18.3596   -4.6800   14.3621 H   0  0  0  0  0  0  0  0  0  0  0  0
   19.3669   -3.3348   14.9357 H   0  0  0  0  0  0  0  0  0  0  0  0
   17.6971   -1.6990   14.0654 H   0  0  0  0  0  0  0  0  0  0  0  0
   16.7484   -2.9966   13.3865 H   0  0  0  0  0  0  0  0  0  0  0  0
   15.6878   -2.2710   15.4281 H   0  0  0  0  0  0  0  0  0  0  0  0
   16.2346   -3.9170   15.5877 H   0  0  0  0  0  0  0  0  0  0  0  0
   18.1081   -3.2732   16.9510 H   0  0  0  0  0  0  0  0  0  0  0  0
   15.4940   -2.0492   17.9538 H   0  0  0  0  0  0  0  0  0  0  0  0
   16.8805   -2.5119   18.9608 H   0  0  0  0  0  0  0  0  0  0  0  0
   15.9934   -3.7388   18.0534 H   0  0  0  0  0  0  0  0  0  0  0  0
   18.5093   -0.8987   15.9289 H   0  0  0  0  0  0  0  0  0  0  0  0
   18.8320   -1.2093   17.6073 H   0  0  0  0  0  0  0  0  0  0  0  0
   16.5287   -0.1268   15.3071 H   0  0  0  0  0  0  0  0  0  0  0  0
   14.7533    1.5371   16.8990 H   0  0  0  0  0  0  0  0  0  0  0  0
   15.8767    2.4543   15.9040 H   0  0  0  0  0  0  0  0  0  0  0  0
   14.9733    1.5898   13.8527 H   0  0  0  0  0  0  0  0  0  0  0  0
   13.6085    2.0836   14.8393 H   0  0  0  0  0  0  0  0  0  0  0  0
   14.6298   -0.7334   14.2573 H   0  0  0  0  0  0  0  0  0  0  0  0
   13.8630   -1.1307   16.5041 H   0  0  0  0  0  0  0  0  0  0  0  0
   12.6071    0.1092   16.3650 H   0  0  0  0  0  0  0  0  0  0  0  0
   11.1748   -1.5339   15.6710 H   0  0  0  0  0  0  0  0  0  0  0  0
   12.4873   -2.7046   15.4467 H   0  0  0  0  0  0  0  0  0  0  0  0
   11.1909   -1.4993   13.4406 H   0  0  0  0  0  0  0  0  0  0  0  0
   11.9529    0.6576   13.7491 H   0  0  0  0  0  0  0  0  0  0  0  0
   13.0984    0.0012   12.5545 H   0  0  0  0  0  0  0  0  0  0  0  0
  1  2  1  0
  2  3  1  0
  3  4  1  0
  4  5  1  0
  4  6  1  0
  6  7  1  0
  7  8  2  0
  7  9  1  0
  9 10  1  0
 10 11  1  0
 11 12  1  0
 12 13  1  0
 13 14  1  0
 14 15  1  0
 15 16  1  0
 16 12  1  0
  1 17  1  0
  1 18  1  0
  1 19  1  0
  2 20  1  0
  2 21  1  0
  3 22  1  0
  3 23  1  0
  4 24  1  0
  5 25  1  0
  5 26  1  0
  5 27  1  0
  6 28  1  0
  6 29  1  0
  9 30  1  0
 10 31  1  0
 10 32  1  0
 11 33  1  0
 11 34  1  0
 12 35  1  0
 13 36  1  0
 13 37  1  0
 14 38  1  0
 14 39  1  0
 15 40  1  0
 16 41  1  0
 16 42  1  0
M  END
>  <Energy>  (14) 
6.6987029818221329

>  <compound_id>  (14) 
77228

>  <target_id>  (14) 
1

>  <reference_id>  (14) 
97

>  <inspiration_ids>  (14) 
[124, 97]

>  <energy_score>  (14) 
-15.125483297463944

>  <distance_score>  (14) 
2.5610679876996936

>  <path>  (14) 
/opt/xchem-fragalysis-2/maxwin/BulkDock/SCRATCH/511024/C77228-P97/C77228-P97.minimised.mol

>  <scratch_subdir>  (14) 
/opt/xchem-fragalysis-2/maxwin/BulkDock/SCRATCH/511024/C77228-P97

>  <fragmenstein_runtime>  (14) 
9.453442335128784

>  <fragmenstein_outcome>  (14) 
too moved

>  <fragmenstein_mode>  (14) 
expansion

>  <fragmenstein_error>  (14) 


$$$$
C77229-P124
     RDKit          3D

 46 46  0  0  0  0  0  0  0  0999 V2000
   18.3169   -4.4617   16.2737 C   0  0  0  0  0  0  0  0  0  0  0  0
   18.5875   -3.5628   15.0755 C   0  0  0  0  0  0  0  0  0  0  0  0
   18.3001   -2.0585   15.3157 C   0  0  0  0  0  0  0  0  0  0  0  0
   16.8061   -1.9466   15.4488 N   0  0  0  0  0  0  0  0  0  0  0  0
   17.1615   -0.4673   15.2561 C   0  0  0  0  0  0  0  0  0  0  0  0
   17.4759    0.1551   13.8547 C   0  0  0  0  0  0  0  0  0  0  0  0
   16.9036   -0.3514   12.6203 N   0  0  0  0  0  0  0  0  0  0  0  0
   16.9188   -1.7779   12.3555 C   0  0  0  0  0  0  0  0  0  0  0  0
   16.1205   -1.8712   11.0755 C   0  0  0  0  0  0  0  0  0  0  0  0
   15.0687   -0.7830   11.2089 C   0  0  0  0  0  0  0  0  0  0  0  0
   15.6255    0.2075   12.2209 C   0  0  0  0  0  0  0  0  0  0  0  0
   15.9069   -2.1412   16.6491 C   0  0  0  0  0  0  0  0  0  0  0  0
   16.1760   -2.3476   17.7785 O   0  0  0  0  0  0  0  0  0  0  0  0
   14.4036   -2.1533   16.2089 C   0  0  0  0  0  0  0  0  0  0  0  0
   14.0036   -1.5067   14.8712 C   0  0  0  0  0  0  0  0  0  0  0  0
   12.5838   -1.6090   14.3226 C   0  0  0  0  0  0  0  0  0  0  0  0
   13.8627   -3.8799   16.4825 S   0  0  0  0  0  0  0  0  0  0  0  0
   12.0857   -3.7585   16.3699 C   0  0  0  0  0  0  0  0  0  0  0  0
   17.2465   -4.5608   16.4694 H   0  0  0  0  0  0  0  0  0  0  0  0
   18.8060   -4.0800   17.1750 H   0  0  0  0  0  0  0  0  0  0  0  0
   18.7041   -5.4674   16.0795 H   0  0  0  0  0  0  0  0  0  0  0  0
   18.0174   -3.9298   14.2144 H   0  0  0  0  0  0  0  0  0  0  0  0
   19.6495   -3.6649   14.8182 H   0  0  0  0  0  0  0  0  0  0  0  0
   18.7922   -1.6227   14.4436 H   0  0  0  0  0  0  0  0  0  0  0  0
   18.8091   -1.7930   16.2555 H   0  0  0  0  0  0  0  0  0  0  0  0
   17.8130   -0.0527   16.0491 H   0  0  0  0  0  0  0  0  0  0  0  0
   16.2199    0.0321   15.5278 H   0  0  0  0  0  0  0  0  0  0  0  0
   17.2479    1.2287   13.9292 H   0  0  0  0  0  0  0  0  0  0  0  0
   18.5645    0.1670   13.7123 H   0  0  0  0  0  0  0  0  0  0  0  0
   17.9331   -2.1623   12.2118 H   0  0  0  0  0  0  0  0  0  0  0  0
   16.4195   -2.3792   13.1121 H   0  0  0  0  0  0  0  0  0  0  0  0
   15.6712   -2.8583   10.9442 H   0  0  0  0  0  0  0  0  0  0  0  0
   16.7628   -1.6631   10.2116 H   0  0  0  0  0  0  0  0  0  0  0  0
   14.1330   -1.2109   11.5811 H   0  0  0  0  0  0  0  0  0  0  0  0
   14.8728   -0.3100   10.2427 H   0  0  0  0  0  0  0  0  0  0  0  0
   15.7670    1.1910   11.7594 H   0  0  0  0  0  0  0  0  0  0  0  0
   14.9303    0.3347   13.0529 H   0  0  0  0  0  0  0  0  0  0  0  0
   13.9593   -1.5882   17.0159 H   0  0  0  0  0  0  0  0  0  0  0  0
   14.2135   -0.4367   14.9696 H   0  0  0  0  0  0  0  0  0  0  0  0
   14.6544   -1.8855   14.0851 H   0  0  0  0  0  0  0  0  0  0  0  0
   11.8247   -1.4278   15.0801 H   0  0  0  0  0  0  0  0  0  0  0  0
   12.4439   -0.8520   13.5430 H   0  0  0  0  0  0  0  0  0  0  0  0
   12.4107   -2.5737   13.8411 H   0  0  0  0  0  0  0  0  0  0  0  0
   11.7554   -2.8162   16.7888 H   0  0  0  0  0  0  0  0  0  0  0  0
   11.6569   -4.5836   16.9301 H   0  0  0  0  0  0  0  0  0  0  0  0
   11.7150   -3.8462   15.3514 H   0  0  0  0  0  0  0  0  0  0  0  0
  1  2  1  0
  2  3  1  0
  3  4  1  0
  4  5  1  0
  5  6  1  0
  6  7  1  0
  7  8  1  0
  8  9  1  0
  9 10  1  0
 10 11  1  0
  4 12  1  0
 12 13  2  0
 12 14  1  0
 14 15  1  0
 15 16  1  0
 14 17  1  0
 17 18  1  0
 11  7  1  0
  1 19  1  0
  1 20  1  0
  1 21  1  0
  2 22  1  0
  2 23  1  0
  3 24  1  0
  3 25  1  0
  5 26  1  0
  5 27  1  0
  6 28  1  0
  6 29  1  0
  8 30  1  0
  8 31  1  0
  9 32  1  0
  9 33  1  0
 10 34  1  0
 10 35  1  0
 11 36  1  0
 11 37  1  0
 14 38  1  0
 15 39  1  0
 15 40  1  0
 16 41  1  0
 16 42  1  0
 16 43  1  0
 18 44  1  0
 18 45  1  0
 18 46  1  0
M  END
>  <Energy>  (15) 
153.05094917840756

>  <compound_id>  (15) 
77229

>  <target_id>  (15) 
1

>  <reference_id>  (15) 
124

>  <inspiration_ids>  (15) 
[124, 97]

>  <energy_score>  (15) 
24.93851404801302

>  <distance_score>  (15) 
1.7902656381241415

>  <path>  (15) 
/opt/xchem-fragalysis-2/maxwin/BulkDock/SCRATCH/511024/C77229-P124/C77229-P124.minimised.mol

>  <scratch_subdir>  (15) 
/opt/xchem-fragalysis-2/maxwin/BulkDock/SCRATCH/511024/C77229-P124

>  <fragmenstein_runtime>  (15) 
10.863262414932251

>  <fragmenstein_outcome>  (15) 
too moved

>  <fragmenstein_mode>  (15) 
expansion

>  <fragmenstein_error>  (15) 


$$$$
C77229-P97
     RDKit          3D

 46 46  0  0  0  0  0  0  0  0999 V2000
   17.6310   -3.7625   17.1172 C   0  0  0  0  0  0  0  0  0  0  0  0
   18.0647   -3.0252   15.8579 C   0  0  0  0  0  0  0  0  0  0  0  0
   17.7293   -1.5111   15.8706 C   0  0  0  0  0  0  0  0  0  0  0  0
   16.2294   -1.4144   15.7532 N   0  0  0  0  0  0  0  0  0  0  0  0
   16.6188   -0.0151   15.2660 C   0  0  0  0  0  0  0  0  0  0  0  0
   16.9708    0.2120   13.7622 C   0  0  0  0  0  0  0  0  0  0  0  0
   16.1806   -0.5179   12.7690 N   0  0  0  0  0  0  0  0  0  0  0  0
   16.5141   -1.9454   12.6776 C   0  0  0  0  0  0  0  0  0  0  0  0
   15.9565   -2.3630   11.3257 C   0  0  0  0  0  0  0  0  0  0  0  0
   15.8065   -1.0728   10.5353 C   0  0  0  0  0  0  0  0  0  0  0  0
   16.4188   -0.0026   11.4170 C   0  0  0  0  0  0  0  0  0  0  0  0
   15.1549   -1.3436   16.8266 C   0  0  0  0  0  0  0  0  0  0  0  0
   15.2523   -1.2672   18.0008 O   0  0  0  0  0  0  0  0  0  0  0  0
   13.7301   -1.5053   16.1818 C   0  0  0  0  0  0  0  0  0  0  0  0
   13.5064   -1.0728   14.7284 C   0  0  0  0  0  0  0  0  0  0  0  0
   12.0573   -0.8699   14.3025 C   0  0  0  0  0  0  0  0  0  0  0  0
   13.4012   -3.3153   16.4836 S   0  0  0  0  0  0  0  0  0  0  0  0
   11.7302   -3.4887   15.8856 C   0  0  0  0  0  0  0  0  0  0  0  0
   16.5431   -3.8081   17.2039 H   0  0  0  0  0  0  0  0  0  0  0  0
   18.0312   -3.2800   18.0145 H   0  0  0  0  0  0  0  0  0  0  0  0
   18.0017   -4.7925   17.0935 H   0  0  0  0  0  0  0  0  0  0  0  0
   17.6236   -3.5129   14.9815 H   0  0  0  0  0  0  0  0  0  0  0  0
   19.1533   -3.1321   15.7684 H   0  0  0  0  0  0  0  0  0  0  0  0
   18.3724   -1.1548   15.0584 H   0  0  0  0  0  0  0  0  0  0  0  0
   18.0586   -1.1112   16.8424 H   0  0  0  0  0  0  0  0  0  0  0  0
   17.2712    0.5690   15.9453 H   0  0  0  0  0  0  0  0  0  0  0  0
   15.6944    0.5641   15.4029 H   0  0  0  0  0  0  0  0  0  0  0  0
   18.0415    0.0662   13.5736 H   0  0  0  0  0  0  0  0  0  0  0  0
   16.8137    1.2875   13.5941 H   0  0  0  0  0  0  0  0  0  0  0  0
   17.5993   -2.1078   12.6893 H   0  0  0  0  0  0  0  0  0  0  0  0
   16.0634   -2.5451   13.4694 H   0  0  0  0  0  0  0  0  0  0  0  0
   14.9799   -2.8483   11.4336 H   0  0  0  0  0  0  0  0  0  0  0  0
   16.6305   -3.0635   10.8231 H   0  0  0  0  0  0  0  0  0  0  0  0
   14.7447   -0.8666   10.3736 H   0  0  0  0  0  0  0  0  0  0  0  0
   16.2944   -1.1278    9.5575 H   0  0  0  0  0  0  0  0  0  0  0  0
   17.4910    0.0909   11.2007 H   0  0  0  0  0  0  0  0  0  0  0  0
   15.9432    0.9701   11.2562 H   0  0  0  0  0  0  0  0  0  0  0  0
   13.0535   -0.9313   16.8252 H   0  0  0  0  0  0  0  0  0  0  0  0
   13.9758   -0.0983   14.5810 H   0  0  0  0  0  0  0  0  0  0  0  0
   13.9848   -1.7665   14.0321 H   0  0  0  0  0  0  0  0  0  0  0  0
   11.6210   -1.7888   13.9170 H   0  0  0  0  0  0  0  0  0  0  0  0
   11.4401   -0.4747   15.1146 H   0  0  0  0  0  0  0  0  0  0  0  0
   12.0161   -0.1487   13.4784 H   0  0  0  0  0  0  0  0  0  0  0  0
   11.1212   -2.6239   16.1369 H   0  0  0  0  0  0  0  0  0  0  0  0
   11.3139   -4.3731   16.3609 H   0  0  0  0  0  0  0  0  0  0  0  0
   11.7077   -3.6431   14.8078 H   0  0  0  0  0  0  0  0  0  0  0  0
  1  2  1  0
  2  3  1  0
  3  4  1  0
  4  5  1  0
  5  6  1  0
  6  7  1  0
  7  8  1  0
  8  9  1  0
  9 10  1  0
 10 11  1  0
  4 12  1  0
 12 13  2  0
 12 14  1  0
 14 15  1  0
 15 16  1  0
 14 17  1  0
 17 18  1  0
 11  7  1  0
  1 19  1  0
  1 20  1  0
  1 21  1  0
  2 22  1  0
  2 23  1  0
  3 24  1  0
  3 25  1  0
  5 26  1  0
  5 27  1  0
  6 28  1  0
  6 29  1  0
  8 30  1  0
  8 31  1  0
  9 32  1  0
  9 33  1  0
 10 34  1  0
 10 35  1  0
 11 36  1  0
 11 37  1  0
 14 38  1  0
 15 39  1  0
 15 40  1  0
 16 41  1  0
 16 42  1  0
 16 43  1  0
 18 44  1  0
 18 45  1  0
 18 46  1  0
M  END
>  <Energy>  (16) 
143.96446112010187

>  <compound_id>  (16) 
77229

>  <target_id>  (16) 
1

>  <reference_id>  (16) 
97

>  <inspiration_ids>  (16) 
[124, 97]

>  <energy_score>  (16) 
15.852025989706704

>  <distance_score>  (16) 
1.7760461019319271

>  <path>  (16) 
/opt/xchem-fragalysis-2/maxwin/BulkDock/SCRATCH/511024/C77229-P97/C77229-P97.minimised.mol

>  <scratch_subdir>  (16) 
/opt/xchem-fragalysis-2/maxwin/BulkDock/SCRATCH/511024/C77229-P97

>  <fragmenstein_runtime>  (16) 
10.926767826080322

>  <fragmenstein_outcome>  (16) 
too moved

>  <fragmenstein_mode>  (16) 
expansion

>  <fragmenstein_error>  (16) 


$$$$
C77230-P124
     RDKit          3D

 51 51  0  0  0  0  0  0  0  0999 V2000
   15.5511   -0.3912   19.2955 C   0  0  0  0  0  0  0  0  0  0  0  0
   16.6227   -0.4656   18.2281 C   0  0  0  0  0  0  0  0  0  0  0  0
   17.0859   -1.9003   17.9385 C   0  0  0  0  0  0  0  0  0  0  0  0
   18.0357   -1.9192   16.7383 C   0  0  0  0  0  0  0  0  0  0  0  0
   18.0027   -3.1946   15.8817 C   0  0  0  0  0  0  0  0  0  0  0  0
   18.7914   -3.0229   14.5715 C   0  0  0  0  0  0  0  0  0  0  0  0
   17.9917   -2.7844   13.2716 C   0  0  0  0  0  0  0  0  0  0  0  0
   18.2658   -3.3368   12.2799 O   0  0  0  0  0  0  0  0  0  0  0  0
   16.9398   -1.6823   13.5483 N   0  0  0  0  0  0  0  0  0  0  0  0
   15.9426   -1.0994   12.6823 C   0  0  0  0  0  0  0  0  0  0  0  0
   15.0268   -0.0226   13.3458 C   0  0  0  0  0  0  0  0  0  0  0  0
   15.7557    0.8294   14.3954 C   0  0  0  0  0  0  0  0  0  0  0  0
   14.6144    0.9626   12.2154 C   0  0  0  0  0  0  0  0  0  0  0  0
   13.6929   -0.6204   13.9040 C   0  0  0  0  0  0  0  0  0  0  0  0
   13.7121   -1.8968   14.6141 N   0  0  0  0  0  0  0  0  0  0  0  0
   12.3666   -2.4255   14.8627 C   0  0  0  0  0  0  0  0  0  0  0  0
   12.4873   -3.2690   16.1294 C   0  0  0  0  0  0  0  0  0  0  0  0
   13.9337   -3.1882   16.5426 C   0  0  0  0  0  0  0  0  0  0  0  0
   14.4246   -1.9224   15.8700 C   0  0  0  0  0  0  0  0  0  0  0  0
   15.9220   -0.7828   20.2480 H   0  0  0  0  0  0  0  0  0  0  0  0
   14.6703   -0.9727   19.0100 H   0  0  0  0  0  0  0  0  0  0  0  0
   15.2389    0.6458   19.4530 H   0  0  0  0  0  0  0  0  0  0  0  0
   17.4849    0.1357   18.5407 H   0  0  0  0  0  0  0  0  0  0  0  0
   16.2264    0.0017   17.3263 H   0  0  0  0  0  0  0  0  0  0  0  0
   17.6031   -2.3041   18.8175 H   0  0  0  0  0  0  0  0  0  0  0  0
   16.2301   -2.5528   17.7714 H   0  0  0  0  0  0  0  0  0  0  0  0
   19.0592   -1.7898   17.1168 H   0  0  0  0  0  0  0  0  0  0  0  0
   17.8656   -1.0347   16.1210 H   0  0  0  0  0  0  0  0  0  0  0  0
   18.4632   -3.9992   16.4690 H   0  0  0  0  0  0  0  0  0  0  0  0
   16.9805   -3.5174   15.6681 H   0  0  0  0  0  0  0  0  0  0  0  0
   19.5394   -2.2258   14.6542 H   0  0  0  0  0  0  0  0  0  0  0  0
   19.3461   -3.9563   14.4042 H   0  0  0  0  0  0  0  0  0  0  0  0
   17.0225   -1.3718   14.4956 H   0  0  0  0  0  0  0  0  0  0  0  0
   16.5125   -0.6610   11.8542 H   0  0  0  0  0  0  0  0  0  0  0  0
   15.3558   -1.9153   12.2450 H   0  0  0  0  0  0  0  0  0  0  0  0
   16.0247    0.2537   15.2757 H   0  0  0  0  0  0  0  0  0  0  0  0
   15.1270    1.6596   14.7378 H   0  0  0  0  0  0  0  0  0  0  0  0
   16.6762    1.2602   13.9853 H   0  0  0  0  0  0  0  0  0  0  0  0
   15.4856    1.4894   11.8089 H   0  0  0  0  0  0  0  0  0  0  0  0
   14.1323    0.4334   11.3853 H   0  0  0  0  0  0  0  0  0  0  0  0
   13.9113    1.7187   12.5837 H   0  0  0  0  0  0  0  0  0  0  0  0
   13.2048    0.1413   14.5232 H   0  0  0  0  0  0  0  0  0  0  0  0
   13.0291   -0.7691   13.0427 H   0  0  0  0  0  0  0  0  0  0  0  0
   12.0262   -3.0272   14.0141 H   0  0  0  0  0  0  0  0  0  0  0  0
   11.6252   -1.6355   15.0210 H   0  0  0  0  0  0  0  0  0  0  0  0
   11.8722   -2.8197   16.9006 H   0  0  0  0  0  0  0  0  0  0  0  0
   12.1481   -4.2978   16.0085 H   0  0  0  0  0  0  0  0  0  0  0  0
   14.0433   -3.1626   17.6303 H   0  0  0  0  0  0  0  0  0  0  0  0
   14.4857   -4.0574   16.1697 H   0  0  0  0  0  0  0  0  0  0  0  0
   15.4909   -1.9723   15.7044 H   0  0  0  0  0  0  0  0  0  0  0  0
   14.2310   -1.0409   16.4784 H   0  0  0  0  0  0  0  0  0  0  0  0
  1  2  1  0
  2  3  1  0
  3  4  1  0
  4  5  1  0
  5  6  1  0
  6  7  1  0
  7  8  2  0
  7  9  1  0
  9 10  1  0
 10 11  1  0
 11 12  1  0
 11 13  1  0
 11 14  1  0
 14 15  1  0
 15 16  1  0
 16 17  1  0
 17 18  1  0
 18 19  1  0
 19 15  1  0
  1 20  1  0
  1 21  1  0
  1 22  1  0
  2 23  1  0
  2 24  1  0
  3 25  1  0
  3 26  1  0
  4 27  1  0
  4 28  1  0
  5 29  1  0
  5 30  1  0
  6 31  1  0
  6 32  1  0
  9 33  1  0
 10 34  1  0
 10 35  1  0
 12 36  1  0
 12 37  1  0
 12 38  1  0
 13 39  1  0
 13 40  1  0
 13 41  1  0
 14 42  1  0
 14 43  1  0
 16 44  1  0
 16 45  1  0
 17 46  1  0
 17 47  1  0
 18 48  1  0
 18 49  1  0
 19 50  1  0
 19 51  1  0
M  END
>  <Energy>  (17) 
32.589935833086756

>  <compound_id>  (17) 
77230

>  <target_id>  (17) 
1

>  <reference_id>  (17) 
124

>  <inspiration_ids>  (17) 
[124, 97]

>  <energy_score>  (17) 
-11.152250898754026

>  <distance_score>  (17) 
1.6777633157621794

>  <path>  (17) 
/opt/xchem-fragalysis-2/maxwin/BulkDock/SCRATCH/511024/C77230-P124/C77230-P124.minimised.mol

>  <scratch_subdir>  (17) 
/opt/xchem-fragalysis-2/maxwin/BulkDock/SCRATCH/511024/C77230-P124

>  <fragmenstein_runtime>  (17) 
7.142244100570679

>  <fragmenstein_outcome>  (17) 
too moved

>  <fragmenstein_mode>  (17) 
expansion

>  <fragmenstein_error>  (17) 


$$$$
C77230-P97
     RDKit          3D

 51 51  0  0  0  0  0  0  0  0999 V2000
   16.0524    0.1692   18.8286 C   0  0  0  0  0  0  0  0  0  0  0  0
   16.9384   -0.6621   17.9088 C   0  0  0  0  0  0  0  0  0  0  0  0
   16.6819   -2.1573   18.0675 C   0  0  0  0  0  0  0  0  0  0  0  0
   17.4454   -3.0928   17.1202 C   0  0  0  0  0  0  0  0  0  0  0  0
   17.2453   -2.9135   15.6137 C   0  0  0  0  0  0  0  0  0  0  0  0
   18.2342   -1.9223   14.9978 C   0  0  0  0  0  0  0  0  0  0  0  0
   17.7724   -1.2697   13.6952 C   0  0  0  0  0  0  0  0  0  0  0  0
   18.3948   -1.3174   12.7100 O   0  0  0  0  0  0  0  0  0  0  0  0
   16.4606   -0.5147   14.0167 N   0  0  0  0  0  0  0  0  0  0  0  0
   15.5994    0.2556   13.1702 C   0  0  0  0  0  0  0  0  0  0  0  0
   14.4426    0.9528   13.9220 C   0  0  0  0  0  0  0  0  0  0  0  0
   14.9009    1.6685   15.2024 C   0  0  0  0  0  0  0  0  0  0  0  0
   13.9101    2.0657   12.9758 C   0  0  0  0  0  0  0  0  0  0  0  0
   13.2442   -0.0148   14.1694 C   0  0  0  0  0  0  0  0  0  0  0  0
   13.4582   -1.3160   14.8095 N   0  0  0  0  0  0  0  0  0  0  0  0
   12.2862   -2.1914   14.5920 C   0  0  0  0  0  0  0  0  0  0  0  0
   12.1872   -3.0628   15.8381 C   0  0  0  0  0  0  0  0  0  0  0  0
   13.4146   -2.7326   16.6365 C   0  0  0  0  0  0  0  0  0  0  0  0
   13.6488   -1.2846   16.2531 C   0  0  0  0  0  0  0  0  0  0  0  0
   16.2508   -0.0701   19.8783 H   0  0  0  0  0  0  0  0  0  0  0  0
   14.9908   -0.0088   18.6352 H   0  0  0  0  0  0  0  0  0  0  0  0
   16.2506    1.2355   18.6813 H   0  0  0  0  0  0  0  0  0  0  0  0
   17.9893   -0.4488   18.1371 H   0  0  0  0  0  0  0  0  0  0  0  0
   16.7701   -0.3417   16.8835 H   0  0  0  0  0  0  0  0  0  0  0  0
   16.9499   -2.4409   19.0943 H   0  0  0  0  0  0  0  0  0  0  0  0
   15.6153   -2.3660   17.9887 H   0  0  0  0  0  0  0  0  0  0  0  0
   17.1325   -4.1149   17.3729 H   0  0  0  0  0  0  0  0  0  0  0  0
   18.5160   -3.0451   17.3564 H   0  0  0  0  0  0  0  0  0  0  0  0
   17.4196   -3.8830   15.1275 H   0  0  0  0  0  0  0  0  0  0  0  0
   16.2023   -2.6790   15.3992 H   0  0  0  0  0  0  0  0  0  0  0  0
   18.4851   -1.1092   15.6862 H   0  0  0  0  0  0  0  0  0  0  0  0
   19.1780   -2.4439   14.7936 H   0  0  0  0  0  0  0  0  0  0  0  0
   16.1504   -0.7585   14.9442 H   0  0  0  0  0  0  0  0  0  0  0  0
   16.2457    0.9889   12.6734 H   0  0  0  0  0  0  0  0  0  0  0  0
   15.2241   -0.4094   12.3837 H   0  0  0  0  0  0  0  0  0  0  0  0
   15.2852    0.9874   15.9571 H   0  0  0  0  0  0  0  0  0  0  0  0
   14.0722    2.2203   15.6611 H   0  0  0  0  0  0  0  0  0  0  0  0
   15.6966    2.3901   14.9839 H   0  0  0  0  0  0  0  0  0  0  0  0
   13.0505    2.5839   13.4165 H   0  0  0  0  0  0  0  0  0  0  0  0
   14.6814    2.8175   12.7719 H   0  0  0  0  0  0  0  0  0  0  0  0
   13.5915    1.6507   12.0123 H   0  0  0  0  0  0  0  0  0  0  0  0
   12.4511    0.5309   14.7013 H   0  0  0  0  0  0  0  0  0  0  0  0
   12.8276   -0.2282   13.1743 H   0  0  0  0  0  0  0  0  0  0  0  0
   12.4192   -2.7870   13.6848 H   0  0  0  0  0  0  0  0  0  0  0  0
   11.3549   -1.6217   14.4888 H   0  0  0  0  0  0  0  0  0  0  0  0
   11.2907   -2.7646   16.3745 H   0  0  0  0  0  0  0  0  0  0  0  0
   12.1012   -4.1241   15.6435 H   0  0  0  0  0  0  0  0  0  0  0  0
   13.2748   -2.8876   17.7066 H   0  0  0  0  0  0  0  0  0  0  0  0
   14.2455   -3.3700   16.3147 H   0  0  0  0  0  0  0  0  0  0  0  0
   14.6491   -0.9677   16.5153 H   0  0  0  0  0  0  0  0  0  0  0  0
   12.9253   -0.6288   16.7497 H   0  0  0  0  0  0  0  0  0  0  0  0
  1  2  1  0
  2  3  1  0
  3  4  1  0
  4  5  1  0
  5  6  1  0
  6  7  1  0
  7  8  2  0
  7  9  1  0
  9 10  1  0
 10 11  1  0
 11 12  1  0
 11 13  1  0
 11 14  1  0
 14 15  1  0
 15 16  1  0
 16 17  1  0
 17 18  1  0
 18 19  1  0
 19 15  1  0
  1 20  1  0
  1 21  1  0
  1 22  1  0
  2 23  1  0
  2 24  1  0
  3 25  1  0
  3 26  1  0
  4 27  1  0
  4 28  1  0
  5 29  1  0
  5 30  1  0
  6 31  1  0
  6 32  1  0
  9 33  1  0
 10 34  1  0
 10 35  1  0
 12 36  1  0
 12 37  1  0
 12 38  1  0
 13 39  1  0
 13 40  1  0
 13 41  1  0
 14 42  1  0
 14 43  1  0
 16 44  1  0
 16 45  1  0
 17 46  1  0
 17 47  1  0
 18 48  1  0
 18 49  1  0
 19 50  1  0
 19 51  1  0
M  END
>  <Energy>  (18) 
26.328752178767704

>  <compound_id>  (18) 
77230

>  <target_id>  (18) 
1

>  <reference_id>  (18) 
97

>  <inspiration_ids>  (18) 
[124, 97]

>  <energy_score>  (18) 
-17.413434553073614

>  <distance_score>  (18) 
1.5487541526265078

>  <path>  (18) 
/opt/xchem-fragalysis-2/maxwin/BulkDock/SCRATCH/511024/C77230-P97/C77230-P97.minimised.mol

>  <scratch_subdir>  (18) 
/opt/xchem-fragalysis-2/maxwin/BulkDock/SCRATCH/511024/C77230-P97

>  <fragmenstein_runtime>  (18) 
6.706930875778198

>  <fragmenstein_outcome>  (18) 
too moved

>  <fragmenstein_mode>  (18) 
expansion

>  <fragmenstein_error>  (18) 


$$$$
C77232-P124
     RDKit          3D

 34 34  0  0  0  0  0  0  0  0999 V2000
   16.6795   -2.4393   17.7762 C   0  0  0  0  0  0  0  0  0  0  0  0
   17.6824   -3.1786   16.9627 C   0  0  0  0  0  0  0  0  0  0  0  0
   18.0239   -3.1366   15.6640 C   0  0  0  0  0  0  0  0  0  0  0  0
   17.4924   -2.3616   14.5015 C   0  0  0  0  0  0  0  0  0  0  0  0
   17.4546   -2.8563   13.4518 O   0  0  0  0  0  0  0  0  0  0  0  0
   17.0675   -0.9658   14.9549 N   0  0  0  0  0  0  0  0  0  0  0  0
   16.4151    0.0935   14.2326 C   0  0  0  0  0  0  0  0  0  0  0  0
   15.1153    0.6204   14.8876 C   0  0  0  0  0  0  0  0  0  0  0  0
   15.3876    1.1502   16.3025 C   0  0  0  0  0  0  0  0  0  0  0  0
   13.9175   -0.2329   14.9046 N   0  0  0  0  0  0  0  0  0  0  0  0
   14.0320   -1.6155   15.3526 C   0  0  0  0  0  0  0  0  0  0  0  0
   12.6442   -2.1702   15.0709 C   0  0  0  0  0  0  0  0  0  0  0  0
   12.1589   -1.3679   13.8827 C   0  0  0  0  0  0  0  0  0  0  0  0
   13.2339   -0.3243   13.6164 C   0  0  0  0  0  0  0  0  0  0  0  0
   15.9785   -3.1472   18.2296 H   0  0  0  0  0  0  0  0  0  0  0  0
   17.1843   -1.8986   18.5829 H   0  0  0  0  0  0  0  0  0  0  0  0
   16.1034   -1.7240   17.2087 H   0  0  0  0  0  0  0  0  0  0  0  0
   18.2378   -3.9070   17.5582 H   0  0  0  0  0  0  0  0  0  0  0  0
   18.7703   -3.8550   15.3229 H   0  0  0  0  0  0  0  0  0  0  0  0
   17.3157   -0.8369   15.9246 H   0  0  0  0  0  0  0  0  0  0  0  0
   16.2174   -0.2601   13.2154 H   0  0  0  0  0  0  0  0  0  0  0  0
   17.1433    0.9087   14.1553 H   0  0  0  0  0  0  0  0  0  0  0  0
   14.8460    1.5149   14.3070 H   0  0  0  0  0  0  0  0  0  0  0  0
   14.5678    1.7958   16.6324 H   0  0  0  0  0  0  0  0  0  0  0  0
   16.2975    1.7602   16.3213 H   0  0  0  0  0  0  0  0  0  0  0  0
   15.5024    0.3536   17.0401 H   0  0  0  0  0  0  0  0  0  0  0  0
   14.7657   -2.1851   14.7770 H   0  0  0  0  0  0  0  0  0  0  0  0
   14.2491   -1.7015   16.4155 H   0  0  0  0  0  0  0  0  0  0  0  0
   12.6549   -3.2407   14.8690 H   0  0  0  0  0  0  0  0  0  0  0  0
   11.9622   -2.0370   15.9141 H   0  0  0  0  0  0  0  0  0  0  0  0
   11.1973   -0.8999   14.1078 H   0  0  0  0  0  0  0  0  0  0  0  0
   12.0206   -2.0283   13.0325 H   0  0  0  0  0  0  0  0  0  0  0  0
   13.9041   -0.6726   12.8213 H   0  0  0  0  0  0  0  0  0  0  0  0
   12.7930    0.6286   13.3068 H   0  0  0  0  0  0  0  0  0  0  0  0
  1  2  1  0
  2  3  2  3
  3  4  1  0
  4  5  2  0
  4  6  1  0
  6  7  1  0
  7  8  1  0
  8  9  1  0
  8 10  1  0
 10 11  1  0
 11 12  1  0
 12 13  1  0
 13 14  1  0
 14 10  1  0
  1 15  1  0
  1 16  1  0
  1 17  1  0
  2 18  1  0
  3 19  1  0
  6 20  1  0
  7 21  1  0
  7 22  1  0
  8 23  1  0
  9 24  1  0
  9 25  1  0
  9 26  1  0
 11 27  1  0
 11 28  1  0
 12 29  1  0
 12 30  1  0
 13 31  1  0
 13 32  1  0
 14 33  1  0
 14 34  1  0
M  END
>  <Energy>  (19) 
24.476897336703747

>  <compound_id>  (19) 
77232

>  <target_id>  (19) 
1

>  <reference_id>  (19) 
124

>  <inspiration_ids>  (19) 
[124, 97]

>  <energy_score>  (19) 
-19.231591769973946

>  <distance_score>  (19) 
1.7177311484560747

>  <path>  (19) 
/opt/xchem-fragalysis-2/maxwin/BulkDock/SCRATCH/511024/C77232-P124/C77232-P124.minimised.mol

>  <scratch_subdir>  (19) 
/opt/xchem-fragalysis-2/maxwin/BulkDock/SCRATCH/511024/C77232-P124

>  <fragmenstein_runtime>  (19) 
2.25754451751709

>  <fragmenstein_outcome>  (19) 
too moved

>  <fragmenstein_mode>  (19) 
expansion

>  <fragmenstein_error>  (19) 


$$$$
C77232-P97
     RDKit          3D

 34 34  0  0  0  0  0  0  0  0999 V2000
   17.2187   -3.3261   18.0908 C   0  0  0  0  0  0  0  0  0  0  0  0
   16.8020   -2.5960   16.8696 C   0  0  0  0  0  0  0  0  0  0  0  0
   17.3763   -2.7175   15.6604 C   0  0  0  0  0  0  0  0  0  0  0  0
   16.8620   -1.9192   14.5121 C   0  0  0  0  0  0  0  0  0  0  0  0
   16.5408   -2.4079   13.5090 O   0  0  0  0  0  0  0  0  0  0  0  0
   16.7708   -0.4607   14.9827 N   0  0  0  0  0  0  0  0  0  0  0  0
   16.1795    0.6844   14.3560 C   0  0  0  0  0  0  0  0  0  0  0  0
   14.8644    1.1269   15.0522 C   0  0  0  0  0  0  0  0  0  0  0  0
   15.1343    1.5157   16.5159 C   0  0  0  0  0  0  0  0  0  0  0  0
   13.6663    0.2780   14.9703 N   0  0  0  0  0  0  0  0  0  0  0  0
   13.6177   -0.9473   15.7601 C   0  0  0  0  0  0  0  0  0  0  0  0
   12.3143   -1.5799   15.3070 C   0  0  0  0  0  0  0  0  0  0  0  0
   12.1255   -1.0686   13.8887 C   0  0  0  0  0  0  0  0  0  0  0  0
   13.3004   -0.1426   13.6214 C   0  0  0  0  0  0  0  0  0  0  0  0
   17.5120   -2.6172   18.8710 H   0  0  0  0  0  0  0  0  0  0  0  0
   16.3879   -3.9294   18.4697 H   0  0  0  0  0  0  0  0  0  0  0  0
   18.0654   -3.9939   17.9024 H   0  0  0  0  0  0  0  0  0  0  0  0
   15.9682   -1.9203   17.0284 H   0  0  0  0  0  0  0  0  0  0  0  0
   18.1568   -3.4333   15.4355 H   0  0  0  0  0  0  0  0  0  0  0  0
   17.0681   -0.3980   15.9471 H   0  0  0  0  0  0  0  0  0  0  0  0
   16.0138    0.4601   13.2983 H   0  0  0  0  0  0  0  0  0  0  0  0
   16.9168    1.4927   14.4113 H   0  0  0  0  0  0  0  0  0  0  0  0
   14.5822    2.0632   14.5501 H   0  0  0  0  0  0  0  0  0  0  0  0
   14.2382    1.9504   16.9740 H   0  0  0  0  0  0  0  0  0  0  0  0
   15.9247    2.2726   16.5711 H   0  0  0  0  0  0  0  0  0  0  0  0
   15.4455    0.6650   17.1298 H   0  0  0  0  0  0  0  0  0  0  0  0
   14.4300   -1.6279   15.5110 H   0  0  0  0  0  0  0  0  0  0  0  0
   13.6075   -0.7704   16.8392 H   0  0  0  0  0  0  0  0  0  0  0  0
   12.3542   -2.6729   15.3496 H   0  0  0  0  0  0  0  0  0  0  0  0
   11.4786   -1.2477   15.9325 H   0  0  0  0  0  0  0  0  0  0  0  0
   11.1886   -0.5062   13.8257 H   0  0  0  0  0  0  0  0  0  0  0  0
   12.0958   -1.8976   13.1779 H   0  0  0  0  0  0  0  0  0  0  0  0
   14.0997   -0.7030   13.1237 H   0  0  0  0  0  0  0  0  0  0  0  0
   13.0096    0.6985   12.9842 H   0  0  0  0  0  0  0  0  0  0  0  0
  1  2  1  0
  2  3  2  3
  3  4  1  0
  4  5  2  0
  4  6  1  0
  6  7  1  0
  7  8  1  0
  8  9  1  0
  8 10  1  0
 10 11  1  0
 11 12  1  0
 12 13  1  0
 13 14  1  0
 14 10  1  0
  1 15  1  0
  1 16  1  0
  1 17  1  0
  2 18  1  0
  3 19  1  0
  6 20  1  0
  7 21  1  0
  7 22  1  0
  8 23  1  0
  9 24  1  0
  9 25  1  0
  9 26  1  0
 11 27  1  0
 11 28  1  0
 12 29  1  0
 12 30  1  0
 13 31  1  0
 13 32  1  0
 14 33  1  0
 14 34  1  0
M  END
>  <Energy>  (20) 
20.559010291865548

>  <compound_id>  (20) 
77232

>  <target_id>  (20) 
1

>  <reference_id>  (20) 
97

>  <inspiration_ids>  (20) 
[124, 97]

>  <energy_score>  (20) 
-23.1494788148122

>  <distance_score>  (20) 
1.6731617550796336

>  <path>  (20) 
/opt/xchem-fragalysis-2/maxwin/BulkDock/SCRATCH/511024/C77232-P97/C77232-P97.minimised.mol

>  <scratch_subdir>  (20) 
/opt/xchem-fragalysis-2/maxwin/BulkDock/SCRATCH/511024/C77232-P97

>  <fragmenstein_runtime>  (20) 
2.422624349594116

>  <fragmenstein_outcome>  (20) 
too moved

>  <fragmenstein_mode>  (20) 
expansion

>  <fragmenstein_error>  (20) 


$$$$
C77233-P124
     RDKit          3D

 39 39  0  0  0  0  0  0  0  0999 V2000
   15.4062    1.7755   18.7164 C   0  0  0  0  0  0  0  0  0  0  0  0
   15.5216    0.2792   18.4697 C   0  0  0  0  0  0  0  0  0  0  0  0
   16.7922   -0.1325   17.7350 C   0  0  0  0  0  0  0  0  0  0  0  0
   17.0093    0.6324   16.4301 C   0  0  0  0  0  0  0  0  0  0  0  0
   18.2826    0.1955   15.6940 C   0  0  0  0  0  0  0  0  0  0  0  0
   17.9456   -0.3684   14.3223 C   0  0  0  0  0  0  0  0  0  0  0  0
   18.1807    0.1815   13.3221 O   0  0  0  0  0  0  0  0  0  0  0  0
   17.1969   -1.6957   14.5841 N   0  0  0  0  0  0  0  0  0  0  0  0
   16.5042   -2.5671   13.6813 C   0  0  0  0  0  0  0  0  0  0  0  0
   15.2016   -1.9404   13.1809 C   0  0  0  0  0  0  0  0  0  0  0  0
   14.2512   -1.5266   14.3380 C   0  0  0  0  0  0  0  0  0  0  0  0
   14.0269   -0.0113   14.3135 C   0  0  0  0  0  0  0  0  0  0  0  0
   12.7926    0.1251   13.4563 C   0  0  0  0  0  0  0  0  0  0  0  0
   11.9643   -0.9463   13.9939 N   0  0  0  0  0  0  0  0  0  0  0  0
   12.8289   -2.0932   14.1801 C   0  0  0  0  0  0  0  0  0  0  0  0
   14.5528    1.9820   19.3703 H   0  0  0  0  0  0  0  0  0  0  0  0
   16.3056    2.1657   19.2030 H   0  0  0  0  0  0  0  0  0  0  0  0
   15.2428    2.3264   17.7855 H   0  0  0  0  0  0  0  0  0  0  0  0
   15.4834   -0.2467   19.4309 H   0  0  0  0  0  0  0  0  0  0  0  0
   14.6624   -0.0622   17.8903 H   0  0  0  0  0  0  0  0  0  0  0  0
   16.7482   -1.2101   17.5425 H   0  0  0  0  0  0  0  0  0  0  0  0
   17.6538    0.0332   18.3941 H   0  0  0  0  0  0  0  0  0  0  0  0
   16.1263    0.5483   15.7985 H   0  0  0  0  0  0  0  0  0  0  0  0
   17.1238    1.6988   16.6586 H   0  0  0  0  0  0  0  0  0  0  0  0
   18.8650   -0.5430   16.2563 H   0  0  0  0  0  0  0  0  0  0  0  0
   18.9374    1.0618   15.5399 H   0  0  0  0  0  0  0  0  0  0  0  0
   17.2449   -1.9223   15.5688 H   0  0  0  0  0  0  0  0  0  0  0  0
   17.1681   -2.7684   12.8352 H   0  0  0  0  0  0  0  0  0  0  0  0
   16.3142   -3.4958   14.2241 H   0  0  0  0  0  0  0  0  0  0  0  0
   14.7201   -2.6488   12.4993 H   0  0  0  0  0  0  0  0  0  0  0  0
   15.4568   -1.0715   12.5612 H   0  0  0  0  0  0  0  0  0  0  0  0
   14.6602   -1.8252   15.3100 H   0  0  0  0  0  0  0  0  0  0  0  0
   13.8324    0.3569   15.3272 H   0  0  0  0  0  0  0  0  0  0  0  0
   14.8687    0.5585   13.9095 H   0  0  0  0  0  0  0  0  0  0  0  0
   12.3293    1.1103   13.5332 H   0  0  0  0  0  0  0  0  0  0  0  0
   13.0501   -0.0408   12.4065 H   0  0  0  0  0  0  0  0  0  0  0  0
   11.1393   -1.1412   13.4176 H   0  0  0  0  0  0  0  0  0  0  0  0
   12.7323   -2.7652   13.3283 H   0  0  0  0  0  0  0  0  0  0  0  0
   12.5261   -2.6435   15.0769 H   0  0  0  0  0  0  0  0  0  0  0  0
  1  2  1  0
  2  3  1  0
  3  4  1  0
  4  5  1  0
  5  6  1  0
  6  7  2  0
  6  8  1  0
  8  9  1  0
  9 10  1  0
 10 11  1  0
 11 12  1  0
 12 13  1  0
 13 14  1  0
 14 15  1  0
 15 11  1  0
  1 16  1  0
  1 17  1  0
  1 18  1  0
  2 19  1  0
  2 20  1  0
  3 21  1  0
  3 22  1  0
  4 23  1  0
  4 24  1  0
  5 25  1  0
  5 26  1  0
  8 27  1  0
  9 28  1  0
  9 29  1  0
 10 30  1  0
 10 31  1  0
 11 32  1  0
 12 33  1  0
 12 34  1  0
 13 35  1  0
 13 36  1  0
 14 37  1  0
 15 38  1  0
 15 39  1  0
M  END
>  <Energy>  (21) 
7.3864755772486292

>  <compound_id>  (21) 
77233

>  <target_id>  (21) 
1

>  <reference_id>  (21) 
124

>  <inspiration_ids>  (21) 
[124, 97]

>  <energy_score>  (21) 
4.772004030251253

>  <distance_score>  (21) 
2.548038833855214

>  <path>  (21) 
/opt/xchem-fragalysis-2/maxwin/BulkDock/SCRATCH/511024/C77233-P124/C77233-P124.minimised.mol

>  <scratch_subdir>  (21) 
/opt/xchem-fragalysis-2/maxwin/BulkDock/SCRATCH/511024/C77233-P124

>  <fragmenstein_runtime>  (21) 
8.908540487289429

>  <fragmenstein_outcome>  (21) 
too moved

>  <fragmenstein_mode>  (21) 
expansion

>  <fragmenstein_error>  (21) 


$$$$
C77233-P97
     RDKit          3D

 39 39  0  0  0  0  0  0  0  0999 V2000
   14.7925    1.4723   17.8721 C   0  0  0  0  0  0  0  0  0  0  0  0
   15.8538    0.6773   18.6065 C   0  0  0  0  0  0  0  0  0  0  0  0
   16.7524   -0.1154   17.6599 C   0  0  0  0  0  0  0  0  0  0  0  0
   16.2198   -1.5048   17.3118 C   0  0  0  0  0  0  0  0  0  0  0  0
   17.2347   -2.2994   16.4743 C   0  0  0  0  0  0  0  0  0  0  0  0
   17.3399   -1.7248   15.0688 C   0  0  0  0  0  0  0  0  0  0  0  0
   18.1892   -1.0005   14.7331 O   0  0  0  0  0  0  0  0  0  0  0  0
   16.0858   -2.2175   14.3111 N   0  0  0  0  0  0  0  0  0  0  0  0
   15.5696   -1.8480   13.0236 C   0  0  0  0  0  0  0  0  0  0  0  0
   14.8750   -0.4899   13.0982 C   0  0  0  0  0  0  0  0  0  0  0  0
   14.0036   -0.2775   14.3625 C   0  0  0  0  0  0  0  0  0  0  0  0
   13.2235    1.0307   14.2464 C   0  0  0  0  0  0  0  0  0  0  0  0
   11.8486    0.6169   13.7422 C   0  0  0  0  0  0  0  0  0  0  0  0
   11.9225   -0.8293   13.6029 N   0  0  0  0  0  0  0  0  0  0  0  0
   12.8928   -1.3011   14.5633 C   0  0  0  0  0  0  0  0  0  0  0  0
   14.2365    2.1014   18.5743 H   0  0  0  0  0  0  0  0  0  0  0  0
   15.2345    2.1254   17.1130 H   0  0  0  0  0  0  0  0  0  0  0  0
   14.0780    0.8044   17.3832 H   0  0  0  0  0  0  0  0  0  0  0  0
   16.4786    1.3891   19.1599 H   0  0  0  0  0  0  0  0  0  0  0  0
   15.3894    0.0202   19.3502 H   0  0  0  0  0  0  0  0  0  0  0  0
   17.7241   -0.2415   18.1555 H   0  0  0  0  0  0  0  0  0  0  0  0
   16.9438    0.4658   16.7507 H   0  0  0  0  0  0  0  0  0  0  0  0
   16.0546   -2.0580   18.2451 H   0  0  0  0  0  0  0  0  0  0  0  0
   15.2477   -1.4448   16.8194 H   0  0  0  0  0  0  0  0  0  0  0  0
   18.2290   -2.2796   16.9352 H   0  0  0  0  0  0  0  0  0  0  0  0
   16.9405   -3.3538   16.4196 H   0  0  0  0  0  0  0  0  0  0  0  0
   15.6014   -2.9083   14.8717 H   0  0  0  0  0  0  0  0  0  0  0  0
   16.4039   -1.8017   12.3169 H   0  0  0  0  0  0  0  0  0  0  0  0
   14.8755   -2.6227   12.6910 H   0  0  0  0  0  0  0  0  0  0  0  0
   14.2916   -0.3423   12.1809 H   0  0  0  0  0  0  0  0  0  0  0  0
   15.6457    0.2931   13.0944 H   0  0  0  0  0  0  0  0  0  0  0  0
   14.6576   -0.2171   15.2323 H   0  0  0  0  0  0  0  0  0  0  0  0
   13.7048    1.7563   13.5826 H   0  0  0  0  0  0  0  0  0  0  0  0
   13.1222    1.4996   15.2320 H   0  0  0  0  0  0  0  0  0  0  0  0
   11.0745    0.9011   14.4638 H   0  0  0  0  0  0  0  0  0  0  0  0
   11.6108    1.0868   12.7832 H   0  0  0  0  0  0  0  0  0  0  0  0
   10.9929   -1.2624   13.6644 H   0  0  0  0  0  0  0  0  0  0  0  0
   13.1948   -2.3293   14.3639 H   0  0  0  0  0  0  0  0  0  0  0  0
   12.4902   -1.2517   15.5823 H   0  0  0  0  0  0  0  0  0  0  0  0
  1  2  1  0
  2  3  1  0
  3  4  1  0
  4  5  1  0
  5  6  1  0
  6  7  2  0
  6  8  1  0
  8  9  1  0
  9 10  1  0
 10 11  1  0
 11 12  1  0
 12 13  1  0
 13 14  1  0
 14 15  1  0
 15 11  1  0
  1 16  1  0
  1 17  1  0
  1 18  1  0
  2 19  1  0
  2 20  1  0
  3 21  1  0
  3 22  1  0
  4 23  1  0
  4 24  1  0
  5 25  1  0
  5 26  1  0
  8 27  1  0
  9 28  1  0
  9 29  1  0
 10 30  1  0
 10 31  1  0
 11 32  1  0
 12 33  1  0
 12 34  1  0
 13 35  1  0
 13 36  1  0
 14 37  1  0
 15 38  1  0
 15 39  1  0
M  END
>  <Energy>  (22) 
1.7041764830753099

>  <compound_id>  (22) 
77233

>  <target_id>  (22) 
1

>  <reference_id>  (22) 
97

>  <inspiration_ids>  (22) 
[124, 97]

>  <energy_score>  (22) 
-0.9102950639225185

>  <distance_score>  (22) 
2.5054598302918767

>  <path>  (22) 
/opt/xchem-fragalysis-2/maxwin/BulkDock/SCRATCH/511024/C77233-P97/C77233-P97.minimised.mol

>  <scratch_subdir>  (22) 
/opt/xchem-fragalysis-2/maxwin/BulkDock/SCRATCH/511024/C77233-P97

>  <fragmenstein_runtime>  (22) 
9.884583234786987

>  <fragmenstein_outcome>  (22) 
too moved

>  <fragmenstein_mode>  (22) 
expansion

>  <fragmenstein_error>  (22) 


$$$$
C77234-P124
     RDKit          3D

 46 46  0  0  0  0  0  0  0  0999 V2000
   11.1097   -3.0141   15.2029 C   0  0  0  0  0  0  0  0  0  0  0  0
   12.1722   -2.2510   15.4450 C   0  0  0  0  0  0  0  0  0  0  0  0
   13.5230   -2.7432   15.9069 C   0  0  0  0  0  0  0  0  0  0  0  0
   14.6571   -1.9335   15.2055 C   0  0  0  0  0  0  0  0  0  0  0  0
   14.1991   -1.7219   13.7149 C   0  0  0  0  0  0  0  0  0  0  0  0
   14.7909   -0.6126   16.0468 C   0  0  0  0  0  0  0  0  0  0  0  0
   16.0345   -2.6619   15.2466 C   0  0  0  0  0  0  0  0  0  0  0  0
   17.1863   -2.1546   14.3190 C   0  0  0  0  0  0  0  0  0  0  0  0
   18.1349   -2.8014   14.1060 O   0  0  0  0  0  0  0  0  0  0  0  0
   16.8177   -0.7272   13.8442 N   0  0  0  0  0  0  0  0  0  0  0  0
   17.4857    0.1488   12.9464 C   0  0  0  0  0  0  0  0  0  0  0  0
   18.9797    0.0880   13.0891 C   0  0  0  0  0  0  0  0  0  0  0  0
   16.9094    1.5574   13.2892 C   0  0  0  0  0  0  0  0  0  0  0  0
   15.4349    1.5991   13.4695 N   0  0  0  0  0  0  0  0  0  0  0  0
   15.0142    2.9159   13.9659 C   0  0  0  0  0  0  0  0  0  0  0  0
   13.5275    2.9739   13.6541 C   0  0  0  0  0  0  0  0  0  0  0  0
   13.3080    1.9576   12.5415 C   0  0  0  0  0  0  0  0  0  0  0  0
   14.6966    1.4316   12.2129 C   0  0  0  0  0  0  0  0  0  0  0  0
   10.2009   -2.5849   14.7944 H   0  0  0  0  0  0  0  0  0  0  0  0
   11.1198   -4.0753   15.4060 H   0  0  0  0  0  0  0  0  0  0  0  0
   12.0794   -1.2037   15.1754 H   0  0  0  0  0  0  0  0  0  0  0  0
   13.6210   -3.8138   15.7190 H   0  0  0  0  0  0  0  0  0  0  0  0
   13.5903   -2.6502   16.9971 H   0  0  0  0  0  0  0  0  0  0  0  0
   13.4735   -2.4661   13.3754 H   0  0  0  0  0  0  0  0  0  0  0  0
   13.7132   -0.7527   13.5991 H   0  0  0  0  0  0  0  0  0  0  0  0
   14.9887   -1.8092   12.9674 H   0  0  0  0  0  0  0  0  0  0  0  0
   14.0626    0.1374   15.7270 H   0  0  0  0  0  0  0  0  0  0  0  0
   15.7792   -0.1445   16.0332 H   0  0  0  0  0  0  0  0  0  0  0  0
   14.6468   -0.8139   17.1143 H   0  0  0  0  0  0  0  0  0  0  0  0
   16.4271   -2.6525   16.2714 H   0  0  0  0  0  0  0  0  0  0  0  0
   15.8906   -3.7140   14.9782 H   0  0  0  0  0  0  0  0  0  0  0  0
   15.9651   -0.4413   14.2772 H   0  0  0  0  0  0  0  0  0  0  0  0
   17.1922   -0.1383   11.9310 H   0  0  0  0  0  0  0  0  0  0  0  0
   19.2970    0.2646   14.1230 H   0  0  0  0  0  0  0  0  0  0  0  0
   19.3709   -0.8889   12.7871 H   0  0  0  0  0  0  0  0  0  0  0  0
   19.4612    0.8410   12.4562 H   0  0  0  0  0  0  0  0  0  0  0  0
   17.2360    2.2773   12.5273 H   0  0  0  0  0  0  0  0  0  0  0  0
   17.3626    1.8778   14.2382 H   0  0  0  0  0  0  0  0  0  0  0  0
   15.5279    3.7301   13.4382 H   0  0  0  0  0  0  0  0  0  0  0  0
   15.2049    3.0249   15.0383 H   0  0  0  0  0  0  0  0  0  0  0  0
   13.2256    3.9798   13.3444 H   0  0  0  0  0  0  0  0  0  0  0  0
   12.9369    2.7051   14.5346 H   0  0  0  0  0  0  0  0  0  0  0  0
   12.8311    2.4100   11.6661 H   0  0  0  0  0  0  0  0  0  0  0  0
   12.6531    1.1546   12.8971 H   0  0  0  0  0  0  0  0  0  0  0  0
   14.6704    0.3978   11.8602 H   0  0  0  0  0  0  0  0  0  0  0  0
   15.1335    2.0450   11.4137 H   0  0  0  0  0  0  0  0  0  0  0  0
  1  2  2  0
  2  3  1  0
  3  4  1  0
  4  5  1  0
  4  6  1  0
  4  7  1  0
  7  8  1  0
  8  9  2  0
  8 10  1  0
 10 11  1  0
 11 12  1  0
 11 13  1  0
 13 14  1  0
 14 15  1  0
 15 16  1  0
 16 17  1  0
 17 18  1  0
 18 14  1  0
  1 19  1  0
  1 20  1  0
  2 21  1  0
  3 22  1  0
  3 23  1  0
  5 24  1  0
  5 25  1  0
  5 26  1  0
  6 27  1  0
  6 28  1  0
  6 29  1  0
  7 30  1  0
  7 31  1  0
 10 32  1  0
 11 33  1  0
 12 34  1  0
 12 35  1  0
 12 36  1  0
 13 37  1  0
 13 38  1  0
 15 39  1  0
 15 40  1  0
 16 41  1  0
 16 42  1  0
 17 43  1  0
 17 44  1  0
 18 45  1  0
 18 46  1  0
M  END
>  <Energy>  (23) 
71.72536960296199

>  <compound_id>  (23) 
77234

>  <target_id>  (23) 
1

>  <reference_id>  (23) 
124

>  <inspiration_ids>  (23) 
[124, 97]

>  <energy_score>  (23) 
13.772180933373505

>  <distance_score>  (23) 
2.5111710976191253

>  <path>  (23) 
/opt/xchem-fragalysis-2/maxwin/BulkDock/SCRATCH/511024/C77234-P124/C77234-P124.minimised.mol

>  <scratch_subdir>  (23) 
/opt/xchem-fragalysis-2/maxwin/BulkDock/SCRATCH/511024/C77234-P124

>  <fragmenstein_runtime>  (23) 
6.223914861679077

>  <fragmenstein_outcome>  (23) 
too moved

>  <fragmenstein_mode>  (23) 
expansion

>  <fragmenstein_error>  (23) 


$$$$
C77234-P97
     RDKit          3D

 46 46  0  0  0  0  0  0  0  0999 V2000
   11.7022   -2.3377   14.8335 C   0  0  0  0  0  0  0  0  0  0  0  0
   12.6745   -1.7248   15.5133 C   0  0  0  0  0  0  0  0  0  0  0  0
   13.6593   -2.4467   16.3778 C   0  0  0  0  0  0  0  0  0  0  0  0
   15.1292   -1.9489   16.3532 C   0  0  0  0  0  0  0  0  0  0  0  0
   15.2249   -0.4407   16.6427 C   0  0  0  0  0  0  0  0  0  0  0  0
   15.8539   -2.6021   17.5365 C   0  0  0  0  0  0  0  0  0  0  0  0
   15.8682   -2.4315   15.0825 C   0  0  0  0  0  0  0  0  0  0  0  0
   15.4006   -1.7990   13.7813 C   0  0  0  0  0  0  0  0  0  0  0  0
   14.6321   -2.2764   13.0530 O   0  0  0  0  0  0  0  0  0  0  0  0
   16.1222   -0.4454   13.7193 N   0  0  0  0  0  0  0  0  0  0  0  0
   15.9801    0.6402   12.8029 C   0  0  0  0  0  0  0  0  0  0  0  0
   17.3640    1.0179   12.3234 C   0  0  0  0  0  0  0  0  0  0  0  0
   15.2416    1.8179   13.4834 C   0  0  0  0  0  0  0  0  0  0  0  0
   13.8864    1.5303   13.9800 N   0  0  0  0  0  0  0  0  0  0  0  0
   13.2399    2.7169   14.5400 C   0  0  0  0  0  0  0  0  0  0  0  0
   11.7954    2.2715   14.6558 C   0  0  0  0  0  0  0  0  0  0  0  0
   11.5767    1.4366   13.4047 C   0  0  0  0  0  0  0  0  0  0  0  0
   12.9727    1.0036   12.9619 C   0  0  0  0  0  0  0  0  0  0  0  0
   11.0141   -1.7534   14.2412 H   0  0  0  0  0  0  0  0  0  0  0  0
   11.5733   -3.4134   14.8383 H   0  0  0  0  0  0  0  0  0  0  0  0
   12.7241   -0.6425   15.4680 H   0  0  0  0  0  0  0  0  0  0  0  0
   13.6373   -3.5228   16.1605 H   0  0  0  0  0  0  0  0  0  0  0  0
   13.2881   -2.3542   17.4031 H   0  0  0  0  0  0  0  0  0  0  0  0
   14.7347    0.1617   15.8856 H   0  0  0  0  0  0  0  0  0  0  0  0
   14.7448   -0.1928   17.5974 H   0  0  0  0  0  0  0  0  0  0  0  0
   16.2678   -0.1105   16.7099 H   0  0  0  0  0  0  0  0  0  0  0  0
   16.9072   -2.3009   17.5851 H   0  0  0  0  0  0  0  0  0  0  0  0
   15.8304   -3.6960   17.4616 H   0  0  0  0  0  0  0  0  0  0  0  0
   15.3931   -2.3353   18.4954 H   0  0  0  0  0  0  0  0  0  0  0  0
   16.9495   -2.2610   15.1812 H   0  0  0  0  0  0  0  0  0  0  0  0
   15.7769   -3.5184   14.9776 H   0  0  0  0  0  0  0  0  0  0  0  0
   16.6631   -0.3127   14.5623 H   0  0  0  0  0  0  0  0  0  0  0  0
   15.3982    0.2804   11.9471 H   0  0  0  0  0  0  0  0  0  0  0  0
   18.0010    1.3505   13.1510 H   0  0  0  0  0  0  0  0  0  0  0  0
   17.8631    0.1666   11.8468 H   0  0  0  0  0  0  0  0  0  0  0  0
   17.3136    1.8298   11.5902 H   0  0  0  0  0  0  0  0  0  0  0  0
   15.2022    2.6508   12.7682 H   0  0  0  0  0  0  0  0  0  0  0  0
   15.8460    2.1619   14.3335 H   0  0  0  0  0  0  0  0  0  0  0  0
   13.3139    3.5795   13.8657 H   0  0  0  0  0  0  0  0  0  0  0  0
   13.6562    2.9910   15.5142 H   0  0  0  0  0  0  0  0  0  0  0  0
   11.1002    3.1139   14.7173 H   0  0  0  0  0  0  0  0  0  0  0  0
   11.6559    1.6512   15.5497 H   0  0  0  0  0  0  0  0  0  0  0  0
   11.1061    2.0424   12.6216 H   0  0  0  0  0  0  0  0  0  0  0  0
   10.9202    0.5864   13.6084 H   0  0  0  0  0  0  0  0  0  0  0  0
   13.1755    1.4250   11.9693 H   0  0  0  0  0  0  0  0  0  0  0  0
   13.0441   -0.0838   12.8912 H   0  0  0  0  0  0  0  0  0  0  0  0
  1  2  2  0
  2  3  1  0
  3  4  1  0
  4  5  1  0
  4  6  1  0
  4  7  1  0
  7  8  1  0
  8  9  2  0
  8 10  1  0
 10 11  1  0
 11 12  1  0
 11 13  1  0
 13 14  1  0
 14 15  1  0
 15 16  1  0
 16 17  1  0
 17 18  1  0
 18 14  1  0
  1 19  1  0
  1 20  1  0
  2 21  1  0
  3 22  1  0
  3 23  1  0
  5 24  1  0
  5 25  1  0
  5 26  1  0
  6 27  1  0
  6 28  1  0
  6 29  1  0
  7 30  1  0
  7 31  1  0
 10 32  1  0
 11 33  1  0
 12 34  1  0
 12 35  1  0
 12 36  1  0
 13 37  1  0
 13 38  1  0
 15 39  1  0
 15 40  1  0
 16 41  1  0
 16 42  1  0
 17 43  1  0
 17 44  1  0
 18 45  1  0
 18 46  1  0
M  END
>  <Energy>  (24) 
48.053151198396094

>  <compound_id>  (24) 
77234

>  <target_id>  (24) 
1

>  <reference_id>  (24) 
97

>  <inspiration_ids>  (24) 
[124, 97]

>  <energy_score>  (24) 
-9.900037471192462

>  <distance_score>  (24) 
2.4674667659712672

>  <path>  (24) 
/opt/xchem-fragalysis-2/maxwin/BulkDock/SCRATCH/511024/C77234-P97/C77234-P97.minimised.mol

>  <scratch_subdir>  (24) 
/opt/xchem-fragalysis-2/maxwin/BulkDock/SCRATCH/511024/C77234-P97

>  <fragmenstein_runtime>  (24) 
5.625879526138306

>  <fragmenstein_outcome>  (24) 
too moved

>  <fragmenstein_mode>  (24) 
expansion

>  <fragmenstein_error>  (24) 


$$$$
C77235-P124
     RDKit          3D

 57 57  0  0  0  0  0  0  0  0999 V2000
   20.3612   -3.5743   11.8358 C   0  0  0  0  0  0  0  0  0  0  0  0
   19.4643   -3.9852   13.0019 C   0  0  0  0  0  0  0  0  0  0  0  0
   18.8356   -2.8092   13.8325 C   0  0  0  0  0  0  0  0  0  0  0  0
   19.9895   -1.9024   14.3037 C   0  0  0  0  0  0  0  0  0  0  0  0
   18.0516   -3.4903   15.0189 C   0  0  0  0  0  0  0  0  0  0  0  0
   17.8182   -2.6189   16.2506 C   0  0  0  0  0  0  0  0  0  0  0  0
   16.9151   -3.2250   17.3275 C   0  0  0  0  0  0  0  0  0  0  0  0
   16.9744   -2.3416   18.5774 C   0  0  0  0  0  0  0  0  0  0  0  0
   15.4645   -3.3342   16.8982 C   0  0  0  0  0  0  0  0  0  0  0  0
   17.8027   -2.0503   12.9009 C   0  0  0  0  0  0  0  0  0  0  0  0
   17.4152   -2.5387   11.9129 O   0  0  0  0  0  0  0  0  0  0  0  0
   17.4166   -0.7069   13.5773 N   0  0  0  0  0  0  0  0  0  0  0  0
   16.4075    0.2628   13.2259 C   0  0  0  0  0  0  0  0  0  0  0  0
   15.2193    0.3530   14.2277 C   0  0  0  0  0  0  0  0  0  0  0  0
   15.7170    0.8679   15.6055 C   0  0  0  0  0  0  0  0  0  0  0  0
   14.2579    1.4349   13.6790 C   0  0  0  0  0  0  0  0  0  0  0  0
   14.5364   -1.0466   14.3872 C   0  0  0  0  0  0  0  0  0  0  0  0
   13.7898   -1.6191   13.1854 C   0  0  0  0  0  0  0  0  0  0  0  0
   12.4723   -2.1660   13.7414 C   0  0  0  0  0  0  0  0  0  0  0  0
   12.6919   -2.2578   15.2198 C   0  0  0  0  0  0  0  0  0  0  0  0
   13.5155   -1.0722   15.4432 N   0  0  0  0  0  0  0  0  0  0  0  0
   20.6623   -4.4633   11.2716 H   0  0  0  0  0  0  0  0  0  0  0  0
   21.2768   -3.0889   12.1863 H   0  0  0  0  0  0  0  0  0  0  0  0
   19.8542   -2.8974   11.1433 H   0  0  0  0  0  0  0  0  0  0  0  0
   20.0662   -4.6189   13.6670 H   0  0  0  0  0  0  0  0  0  0  0  0
   18.6701   -4.6298   12.6109 H   0  0  0  0  0  0  0  0  0  0  0  0
   20.7909   -2.4949   14.7597 H   0  0  0  0  0  0  0  0  0  0  0  0
   20.4150   -1.3383   13.4663 H   0  0  0  0  0  0  0  0  0  0  0  0
   19.6899   -1.1579   15.0457 H   0  0  0  0  0  0  0  0  0  0  0  0
   17.0939   -3.8518   14.6298 H   0  0  0  0  0  0  0  0  0  0  0  0
   18.5979   -4.3812   15.3554 H   0  0  0  0  0  0  0  0  0  0  0  0
   17.3903   -1.6624   15.9720 H   0  0  0  0  0  0  0  0  0  0  0  0
   18.7936   -2.4071   16.7062 H   0  0  0  0  0  0  0  0  0  0  0  0
   17.2875   -4.2241   17.5846 H   0  0  0  0  0  0  0  0  0  0  0  0
   16.3435   -2.7516   19.3737 H   0  0  0  0  0  0  0  0  0  0  0  0
   16.6356   -1.3208   18.3689 H   0  0  0  0  0  0  0  0  0  0  0  0
   17.9973   -2.2843   18.9648 H   0  0  0  0  0  0  0  0  0  0  0  0
   14.8975   -3.9217   17.6291 H   0  0  0  0  0  0  0  0  0  0  0  0
   15.0134   -2.3456   16.8812 H   0  0  0  0  0  0  0  0  0  0  0  0
   15.3542   -3.8261   15.9312 H   0  0  0  0  0  0  0  0  0  0  0  0
   17.8843   -0.6307   14.4655 H   0  0  0  0  0  0  0  0  0  0  0  0
   16.0437    0.0032   12.2254 H   0  0  0  0  0  0  0  0  0  0  0  0
   16.9191    1.2292   13.1520 H   0  0  0  0  0  0  0  0  0  0  0  0
   14.8816    1.1132   16.2701 H   0  0  0  0  0  0  0  0  0  0  0  0
   16.3383    0.1340   16.1193 H   0  0  0  0  0  0  0  0  0  0  0  0
   16.3135    1.7800   15.4882 H   0  0  0  0  0  0  0  0  0  0  0  0
   13.3896    1.5794   14.3259 H   0  0  0  0  0  0  0  0  0  0  0  0
   14.7666    2.4043   13.6098 H   0  0  0  0  0  0  0  0  0  0  0  0
   13.8956    1.1989   12.6744 H   0  0  0  0  0  0  0  0  0  0  0  0
   15.3094   -1.7678   14.6671 H   0  0  0  0  0  0  0  0  0  0  0  0
   14.3776   -2.4203   12.7250 H   0  0  0  0  0  0  0  0  0  0  0  0
   13.5918   -0.8893   12.3986 H   0  0  0  0  0  0  0  0  0  0  0  0
   12.1777   -3.1277   13.3227 H   0  0  0  0  0  0  0  0  0  0  0  0
   11.6731   -1.4470   13.5314 H   0  0  0  0  0  0  0  0  0  0  0  0
   11.7503   -2.2202   15.7743 H   0  0  0  0  0  0  0  0  0  0  0  0
   13.2079   -3.1745   15.5054 H   0  0  0  0  0  0  0  0  0  0  0  0
   12.9199   -0.2566   15.2654 H   0  0  0  0  0  0  0  0  0  0  0  0
  1  2  1  0
  2  3  1  0
  3  4  1  0
  3  5  1  0
  5  6  1  0
  6  7  1  0
  7  8  1  0
  7  9  1  0
  3 10  1  0
 10 11  2  0
 10 12  1  0
 12 13  1  0
 13 14  1  0
 14 15  1  0
 14 16  1  0
 14 17  1  0
 17 18  1  0
 18 19  1  0
 19 20  1  0
 20 21  1  0
 21 17  1  0
  1 22  1  0
  1 23  1  0
  1 24  1  0
  2 25  1  0
  2 26  1  0
  4 27  1  0
  4 28  1  0
  4 29  1  0
  5 30  1  0
  5 31  1  0
  6 32  1  0
  6 33  1  0
  7 34  1  0
  8 35  1  0
  8 36  1  0
  8 37  1  0
  9 38  1  0
  9 39  1  0
  9 40  1  0
 12 41  1  0
 13 42  1  0
 13 43  1  0
 15 44  1  0
 15 45  1  0
 15 46  1  0
 16 47  1  0
 16 48  1  0
 16 49  1  0
 17 50  1  0
 18 51  1  0
 18 52  1  0
 19 53  1  0
 19 54  1  0
 20 55  1  0
 20 56  1  0
 21 57  1  0
M  END
>  <Energy>  (25) 
43.561395133453338

>  <compound_id>  (25) 
77235

>  <target_id>  (25) 
1

>  <reference_id>  (25) 
124

>  <inspiration_ids>  (25) 
[124, 97]

>  <energy_score>  (25) 
-18.754931051418495

>  <distance_score>  (25) 
2.1808185139007383

>  <path>  (25) 
/opt/xchem-fragalysis-2/maxwin/BulkDock/SCRATCH/511024/C77235-P124/C77235-P124.minimised.mol

>  <scratch_subdir>  (25) 
/opt/xchem-fragalysis-2/maxwin/BulkDock/SCRATCH/511024/C77235-P124

>  <fragmenstein_runtime>  (25) 
14.231398582458496

>  <fragmenstein_outcome>  (25) 
too moved

>  <fragmenstein_mode>  (25) 
expansion

>  <fragmenstein_error>  (25) 


$$$$
C77235-P97
     RDKit          3D

 57 57  0  0  0  0  0  0  0  0999 V2000
   19.6941   -3.2937   11.7763 C   0  0  0  0  0  0  0  0  0  0  0  0
   19.0855   -3.4870   13.1633 C   0  0  0  0  0  0  0  0  0  0  0  0
   18.5165   -2.2095   13.8591 C   0  0  0  0  0  0  0  0  0  0  0  0
   19.5387   -1.0578   13.7441 C   0  0  0  0  0  0  0  0  0  0  0  0
   18.3226   -2.5409   15.3717 C   0  0  0  0  0  0  0  0  0  0  0  0
   17.1382   -3.4437   15.6806 C   0  0  0  0  0  0  0  0  0  0  0  0
   16.8259   -3.5628   17.1793 C   0  0  0  0  0  0  0  0  0  0  0  0
   16.8848   -2.2692   17.9923 C   0  0  0  0  0  0  0  0  0  0  0  0
   15.4624   -4.2105   17.3745 C   0  0  0  0  0  0  0  0  0  0  0  0
   17.1780   -1.7560   13.1505 C   0  0  0  0  0  0  0  0  0  0  0  0
   16.8417   -2.2273   12.1360 O   0  0  0  0  0  0  0  0  0  0  0  0
   16.5432   -0.6100   13.9876 N   0  0  0  0  0  0  0  0  0  0  0  0
   15.4227    0.2497   13.6986 C   0  0  0  0  0  0  0  0  0  0  0  0
   14.4992    0.6471   14.8811 C   0  0  0  0  0  0  0  0  0  0  0  0
   15.3300    1.0958   16.1028 C   0  0  0  0  0  0  0  0  0  0  0  0
   13.6984    1.8908   14.4069 C   0  0  0  0  0  0  0  0  0  0  0  0
   13.4535   -0.4316   15.3203 C   0  0  0  0  0  0  0  0  0  0  0  0
   12.5293   -0.9719   14.2353 C   0  0  0  0  0  0  0  0  0  0  0  0
   11.8817   -2.1869   14.8811 C   0  0  0  0  0  0  0  0  0  0  0  0
   12.8525   -2.6048   15.9657 C   0  0  0  0  0  0  0  0  0  0  0  0
   13.9904   -1.6772   15.8888 N   0  0  0  0  0  0  0  0  0  0  0  0
   20.6035   -2.6868   11.8208 H   0  0  0  0  0  0  0  0  0  0  0  0
   19.9750   -4.2666   11.3589 H   0  0  0  0  0  0  0  0  0  0  0  0
   18.9990   -2.8229   11.0772 H   0  0  0  0  0  0  0  0  0  0  0  0
   19.8675   -3.9285   13.7951 H   0  0  0  0  0  0  0  0  0  0  0  0
   18.2973   -4.2426   13.0873 H   0  0  0  0  0  0  0  0  0  0  0  0
   20.5343   -1.3804   14.0687 H   0  0  0  0  0  0  0  0  0  0  0  0
   19.6137   -0.6901   12.7147 H   0  0  0  0  0  0  0  0  0  0  0  0
   19.2596   -0.1969   14.3614 H   0  0  0  0  0  0  0  0  0  0  0  0
   19.2372   -2.9956   15.7753 H   0  0  0  0  0  0  0  0  0  0  0  0
   18.2148   -1.5971   15.9139 H   0  0  0  0  0  0  0  0  0  0  0  0
   16.2541   -3.0979   15.1496 H   0  0  0  0  0  0  0  0  0  0  0  0
   17.3365   -4.4489   15.2870 H   0  0  0  0  0  0  0  0  0  0  0  0
   17.5801   -4.2400   17.6031 H   0  0  0  0  0  0  0  0  0  0  0  0
   16.5824   -2.4557   19.0293 H   0  0  0  0  0  0  0  0  0  0  0  0
   16.2162   -1.5111   17.5867 H   0  0  0  0  0  0  0  0  0  0  0  0
   17.8993   -1.8618   18.0320 H   0  0  0  0  0  0  0  0  0  0  0  0
   14.6834   -3.4851   17.6049 H   0  0  0  0  0  0  0  0  0  0  0  0
   15.1615   -4.8212   16.5188 H   0  0  0  0  0  0  0  0  0  0  0  0
   15.5016   -4.8797   18.2430 H   0  0  0  0  0  0  0  0  0  0  0  0
   17.1386   -0.3972   14.7748 H   0  0  0  0  0  0  0  0  0  0  0  0
   14.8615   -0.1979   12.8734 H   0  0  0  0  0  0  0  0  0  0  0  0
   15.8834    1.1551   13.2828 H   0  0  0  0  0  0  0  0  0  0  0  0
   16.0055    1.9174   15.8378 H   0  0  0  0  0  0  0  0  0  0  0  0
   14.6827    1.4492   16.9136 H   0  0  0  0  0  0  0  0  0  0  0  0
   15.9442    0.2876   16.5004 H   0  0  0  0  0  0  0  0  0  0  0  0
   12.9890    2.2242   15.1729 H   0  0  0  0  0  0  0  0  0  0  0  0
   14.3651    2.7339   14.1905 H   0  0  0  0  0  0  0  0  0  0  0  0
   13.1331    1.6798   13.4926 H   0  0  0  0  0  0  0  0  0  0  0  0
   12.8283    0.0252   16.1024 H   0  0  0  0  0  0  0  0  0  0  0  0
   13.0804   -1.2963   13.3464 H   0  0  0  0  0  0  0  0  0  0  0  0
   11.7750   -0.2447   13.9201 H   0  0  0  0  0  0  0  0  0  0  0  0
   11.7106   -2.9796   14.1460 H   0  0  0  0  0  0  0  0  0  0  0  0
   10.9149   -1.9162   15.3201 H   0  0  0  0  0  0  0  0  0  0  0  0
   12.3890   -2.5315   16.9500 H   0  0  0  0  0  0  0  0  0  0  0  0
   13.1675   -3.6415   15.8375 H   0  0  0  0  0  0  0  0  0  0  0  0
   14.6462   -2.0488   15.1997 H   0  0  0  0  0  0  0  0  0  0  0  0
  1  2  1  0
  2  3  1  0
  3  4  1  0
  3  5  1  0
  5  6  1  0
  6  7  1  0
  7  8  1  0
  7  9  1  0
  3 10  1  0
 10 11  2  0
 10 12  1  0
 12 13  1  0
 13 14  1  0
 14 15  1  0
 14 16  1  0
 14 17  1  0
 17 18  1  0
 18 19  1  0
 19 20  1  0
 20 21  1  0
 21 17  1  0
  1 22  1  0
  1 23  1  0
  1 24  1  0
  2 25  1  0
  2 26  1  0
  4 27  1  0
  4 28  1  0
  4 29  1  0
  5 30  1  0
  5 31  1  0
  6 32  1  0
  6 33  1  0
  7 34  1  0
  8 35  1  0
  8 36  1  0
  8 37  1  0
  9 38  1  0
  9 39  1  0
  9 40  1  0
 12 41  1  0
 13 42  1  0
 13 43  1  0
 15 44  1  0
 15 45  1  0
 15 46  1  0
 16 47  1  0
 16 48  1  0
 16 49  1  0
 17 50  1  0
 18 51  1  0
 18 52  1  0
 19 53  1  0
 19 54  1  0
 20 55  1  0
 20 56  1  0
 21 57  1  0
M  END
>  <Energy>  (26) 
44.923934642267746

>  <compound_id>  (26) 
77235

>  <target_id>  (26) 
1

>  <reference_id>  (26) 
97

>  <inspiration_ids>  (26) 
[124, 97]

>  <energy_score>  (26) 
-17.392391542604543

>  <distance_score>  (26) 
1.8489244758504348

>  <path>  (26) 
/opt/xchem-fragalysis-2/maxwin/BulkDock/SCRATCH/511024/C77235-P97/C77235-P97.minimised.mol

>  <scratch_subdir>  (26) 
/opt/xchem-fragalysis-2/maxwin/BulkDock/SCRATCH/511024/C77235-P97

>  <fragmenstein_runtime>  (26) 
13.996043920516968

>  <fragmenstein_outcome>  (26) 
too moved

>  <fragmenstein_mode>  (26) 
expansion

>  <fragmenstein_error>  (26) 


$$$$
C77236-P124
     RDKit          3D

 39 39  0  0  0  0  0  0  0  0999 V2000
   16.2956   -3.2339   18.7964 C   0  0  0  0  0  0  0  0  0  0  0  0
   16.2854   -3.1431   17.2716 C   0  0  0  0  0  0  0  0  0  0  0  0
   17.6606   -2.6061   16.8539 C   0  0  0  0  0  0  0  0  0  0  0  0
   17.7638   -2.0249   15.4588 C   0  0  0  0  0  0  0  0  0  0  0  0
   18.1014   -2.6420   14.5300 O   0  0  0  0  0  0  0  0  0  0  0  0
   17.4045   -0.5279   15.5897 N   0  0  0  0  0  0  0  0  0  0  0  0
   17.2950    0.4966   14.5877 C   0  0  0  0  0  0  0  0  0  0  0  0
   15.8801    1.1303   14.5511 C   0  0  0  0  0  0  0  0  0  0  0  0
   15.6391    1.9044   15.8613 C   0  0  0  0  0  0  0  0  0  0  0  0
   14.7853    0.1752   14.3635 N   0  0  0  0  0  0  0  0  0  0  0  0
   15.0080   -0.8636   13.3615 C   0  0  0  0  0  0  0  0  0  0  0  0
   13.6155   -1.4170   13.1021 C   0  0  0  0  0  0  0  0  0  0  0  0
   12.6690   -0.4380   13.7655 C   0  0  0  0  0  0  0  0  0  0  0  0
   13.5293    0.7933   13.9524 C   0  0  0  0  0  0  0  0  0  0  0  0
   15.0550   -2.3461   16.8705 C   0  0  0  0  0  0  0  0  0  0  0  0
   14.8036   -2.4562   15.5591 F   0  0  0  0  0  0  0  0  0  0  0  0
   15.2175   -1.0443   17.1971 F   0  0  0  0  0  0  0  0  0  0  0  0
   16.3624   -2.2444   19.2624 H   0  0  0  0  0  0  0  0  0  0  0  0
   17.1435   -3.8324   19.1479 H   0  0  0  0  0  0  0  0  0  0  0  0
   15.3840   -3.7171   19.1655 H   0  0  0  0  0  0  0  0  0  0  0  0
   16.1781   -4.1511   16.8524 H   0  0  0  0  0  0  0  0  0  0  0  0
   18.0249   -1.8596   17.5723 H   0  0  0  0  0  0  0  0  0  0  0  0
   18.3951   -3.4211   16.9166 H   0  0  0  0  0  0  0  0  0  0  0  0
   17.2318   -0.3052   16.5624 H   0  0  0  0  0  0  0  0  0  0  0  0
   18.0484    1.2572   14.8188 H   0  0  0  0  0  0  0  0  0  0  0  0
   17.5567    0.0592   13.6187 H   0  0  0  0  0  0  0  0  0  0  0  0
   15.8892    1.8530   13.7238 H   0  0  0  0  0  0  0  0  0  0  0  0
   15.5124    1.2427   16.7225 H   0  0  0  0  0  0  0  0  0  0  0  0
   16.4836    2.5695   16.0749 H   0  0  0  0  0  0  0  0  0  0  0  0
   14.7502    2.5400   15.7957 H   0  0  0  0  0  0  0  0  0  0  0  0
   15.6931   -1.6535   13.6701 H   0  0  0  0  0  0  0  0  0  0  0  0
   15.4042   -0.4331   12.4318 H   0  0  0  0  0  0  0  0  0  0  0  0
   13.4760   -1.4577   12.0238 H   0  0  0  0  0  0  0  0  0  0  0  0
   13.4654   -2.4158   13.5079 H   0  0  0  0  0  0  0  0  0  0  0  0
   11.7650   -0.2331   13.1908 H   0  0  0  0  0  0  0  0  0  0  0  0
   12.3633   -0.8572   14.7305 H   0  0  0  0  0  0  0  0  0  0  0  0
   13.6319    1.3419   13.0067 H   0  0  0  0  0  0  0  0  0  0  0  0
   13.1508    1.4835   14.7008 H   0  0  0  0  0  0  0  0  0  0  0  0
   14.1642   -2.7080   17.3931 H   0  0  0  0  0  0  0  0  0  0  0  0
  1  2  1  0
  2  3  1  0
  3  4  1  0
  4  5  2  0
  4  6  1  0
  6  7  1  0
  7  8  1  0
  8  9  1  0
  8 10  1  0
 10 11  1  0
 11 12  1  0
 12 13  1  0
 13 14  1  0
  2 15  1  0
 15 16  1  0
 15 17  1  0
 14 10  1  0
  1 18  1  0
  1 19  1  0
  1 20  1  0
  2 21  1  0
  3 22  1  0
  3 23  1  0
  6 24  1  0
  7 25  1  0
  7 26  1  0
  8 27  1  0
  9 28  1  0
  9 29  1  0
  9 30  1  0
 11 31  1  0
 11 32  1  0
 12 33  1  0
 12 34  1  0
 13 35  1  0
 13 36  1  0
 14 37  1  0
 14 38  1  0
 15 39  1  0
M  END
>  <Energy>  (27) 
23.385235121532947

>  <compound_id>  (27) 
77236

>  <target_id>  (27) 
1

>  <reference_id>  (27) 
124

>  <inspiration_ids>  (27) 
[124, 97]

>  <energy_score>  (27) 
-7.9368676728159855

>  <distance_score>  (27) 
2.419415393142854

>  <path>  (27) 
/opt/xchem-fragalysis-2/maxwin/BulkDock/SCRATCH/511024/C77236-P124/C77236-P124.minimised.mol

>  <scratch_subdir>  (27) 
/opt/xchem-fragalysis-2/maxwin/BulkDock/SCRATCH/511024/C77236-P124

>  <fragmenstein_runtime>  (27) 
2.8556289672851562

>  <fragmenstein_outcome>  (27) 
too moved

>  <fragmenstein_mode>  (27) 
expansion

>  <fragmenstein_error>  (27) 


$$$$
C77236-P97
     RDKit          3D

 39 39  0  0  0  0  0  0  0  0999 V2000
   17.4002   -2.4941   17.4858 C   0  0  0  0  0  0  0  0  0  0  0  0
   16.4757   -3.1708   16.4678 C   0  0  0  0  0  0  0  0  0  0  0  0
   16.8689   -2.8609   15.0147 C   0  0  0  0  0  0  0  0  0  0  0  0
   16.0720   -1.8187   14.2361 C   0  0  0  0  0  0  0  0  0  0  0  0
   15.3544   -2.1029   13.3643 O   0  0  0  0  0  0  0  0  0  0  0  0
   16.4401   -0.4389   14.8178 N   0  0  0  0  0  0  0  0  0  0  0  0
   16.0755    0.8828   14.3874 C   0  0  0  0  0  0  0  0  0  0  0  0
   14.8532    1.4936   15.1186 C   0  0  0  0  0  0  0  0  0  0  0  0
   15.1799    1.6695   16.6110 C   0  0  0  0  0  0  0  0  0  0  0  0
   13.5038    0.9320   14.9306 N   0  0  0  0  0  0  0  0  0  0  0  0
   13.1833   -0.2724   15.6807 C   0  0  0  0  0  0  0  0  0  0  0  0
   11.8149   -0.6378   15.1579 C   0  0  0  0  0  0  0  0  0  0  0  0
   11.9358   -0.3185   13.6835 C   0  0  0  0  0  0  0  0  0  0  0  0
   13.1251    0.6298   13.5515 C   0  0  0  0  0  0  0  0  0  0  0  0
   15.0324   -2.9157   16.8635 C   0  0  0  0  0  0  0  0  0  0  0  0
   14.1720   -3.1399   15.8529 F   0  0  0  0  0  0  0  0  0  0  0  0
   14.8854   -1.6312   17.2634 F   0  0  0  0  0  0  0  0  0  0  0  0
   17.2922   -1.4062   17.4921 H   0  0  0  0  0  0  0  0  0  0  0  0
   18.4487   -2.7284   17.2732 H   0  0  0  0  0  0  0  0  0  0  0  0
   17.1838   -2.8533   18.4982 H   0  0  0  0  0  0  0  0  0  0  0  0
   16.6408   -4.2523   16.5780 H   0  0  0  0  0  0  0  0  0  0  0  0
   17.9335   -2.6048   14.9406 H   0  0  0  0  0  0  0  0  0  0  0  0
   16.7686   -3.7918   14.4421 H   0  0  0  0  0  0  0  0  0  0  0  0
   17.0320   -0.5611   15.6267 H   0  0  0  0  0  0  0  0  0  0  0  0
   16.9547    1.5168   14.5506 H   0  0  0  0  0  0  0  0  0  0  0  0
   15.9060    0.8508   13.3071 H   0  0  0  0  0  0  0  0  0  0  0  0
   14.7762    2.5148   14.7186 H   0  0  0  0  0  0  0  0  0  0  0  0
   15.3621    0.7179   17.1171 H   0  0  0  0  0  0  0  0  0  0  0  0
   16.0783    2.2849   16.7348 H   0  0  0  0  0  0  0  0  0  0  0  0
   14.3646    2.1838   17.1326 H   0  0  0  0  0  0  0  0  0  0  0  0
   13.1550   -0.1177   16.7609 H   0  0  0  0  0  0  0  0  0  0  0  0
   13.8788   -1.0574   15.4195 H   0  0  0  0  0  0  0  0  0  0  0  0
   11.5571   -1.6853   15.3407 H   0  0  0  0  0  0  0  0  0  0  0  0
   11.0418   -0.0096   15.6166 H   0  0  0  0  0  0  0  0  0  0  0  0
   12.1376   -1.2480   13.1432 H   0  0  0  0  0  0  0  0  0  0  0  0
   11.0182    0.1363   13.3005 H   0  0  0  0  0  0  0  0  0  0  0  0
   13.9085    0.1240   12.9806 H   0  0  0  0  0  0  0  0  0  0  0  0
   12.8475    1.5408   13.0115 H   0  0  0  0  0  0  0  0  0  0  0  0
   14.7403   -3.5511   17.7053 H   0  0  0  0  0  0  0  0  0  0  0  0
  1  2  1  0
  2  3  1  0
  3  4  1  0
  4  5  2  0
  4  6  1  0
  6  7  1  0
  7  8  1  0
  8  9  1  0
  8 10  1  0
 10 11  1  0
 11 12  1  0
 12 13  1  0
 13 14  1  0
  2 15  1  0
 15 16  1  0
 15 17  1  0
 14 10  1  0
  1 18  1  0
  1 19  1  0
  1 20  1  0
  2 21  1  0
  3 22  1  0
  3 23  1  0
  6 24  1  0
  7 25  1  0
  7 26  1  0
  8 27  1  0
  9 28  1  0
  9 29  1  0
  9 30  1  0
 11 31  1  0
 11 32  1  0
 12 33  1  0
 12 34  1  0
 13 35  1  0
 13 36  1  0
 14 37  1  0
 14 38  1  0
 15 39  1  0
M  END
>  <Energy>  (28) 
28.575210877276024

>  <compound_id>  (28) 
77236

>  <target_id>  (28) 
1

>  <reference_id>  (28) 
97

>  <inspiration_ids>  (28) 
[124, 97]

>  <energy_score>  (28) 
-2.7468919170734125

>  <distance_score>  (28) 
1.5345730036520722

>  <path>  (28) 
/opt/xchem-fragalysis-2/maxwin/BulkDock/SCRATCH/511024/C77236-P97/C77236-P97.minimised.mol

>  <scratch_subdir>  (28) 
/opt/xchem-fragalysis-2/maxwin/BulkDock/SCRATCH/511024/C77236-P97

>  <fragmenstein_runtime>  (28) 
2.421086311340332

>  <fragmenstein_outcome>  (28) 
too moved

>  <fragmenstein_mode>  (28) 
expansion

>  <fragmenstein_error>  (28) 


$$$$
C77237-P124
     RDKit          3D

 36 36  0  0  0  0  0  0  0  0999 V2000
   16.5427   -2.3501   17.9386 C   0  0  0  0  0  0  0  0  0  0  0  0
   17.3243   -2.9400   16.7718 C   0  0  0  0  0  0  0  0  0  0  0  0
   18.2184   -1.8893   16.1105 C   0  0  0  0  0  0  0  0  0  0  0  0
   19.9224   -2.7230   15.5762 Br  0  0  0  0  0  0  0  0  0  0  0  0
   17.6347   -1.3168   14.8095 C   0  0  0  0  0  0  0  0  0  0  0  0
   17.2260   -1.9882   13.9328 O   0  0  0  0  0  0  0  0  0  0  0  0
   17.7995    0.1969   14.8983 N   0  0  0  0  0  0  0  0  0  0  0  0
   17.5895    1.2528   13.8763 C   0  0  0  0  0  0  0  0  0  0  0  0
   16.5319    0.8636   15.4681 C   0  0  0  0  0  0  0  0  0  0  0  0
   15.0960    0.8545   14.8294 C   0  0  0  0  0  0  0  0  0  0  0  0
   14.5848   -0.4118   14.3240 N   0  0  0  0  0  0  0  0  0  0  0  0
   14.2660   -1.4204   15.3349 C   0  0  0  0  0  0  0  0  0  0  0  0
   12.9180   -2.0168   14.9694 C   0  0  0  0  0  0  0  0  0  0  0  0
   12.7441   -1.6033   13.5352 C   0  0  0  0  0  0  0  0  0  0  0  0
   13.4032   -0.2434   13.4786 C   0  0  0  0  0  0  0  0  0  0  0  0
   17.2224   -2.0437   18.7409 H   0  0  0  0  0  0  0  0  0  0  0  0
   15.8576   -3.0986   18.3493 H   0  0  0  0  0  0  0  0  0  0  0  0
   15.9578   -1.4788   17.6482 H   0  0  0  0  0  0  0  0  0  0  0  0
   17.9207   -3.7660   17.1789 H   0  0  0  0  0  0  0  0  0  0  0  0
   16.6358   -3.3960   16.0541 H   0  0  0  0  0  0  0  0  0  0  0  0
   18.5152   -1.1029   16.8114 H   0  0  0  0  0  0  0  0  0  0  0  0
   17.6150    2.3048   14.1981 H   0  0  0  0  0  0  0  0  0  0  0  0
   16.8356    0.9954   13.1220 H   0  0  0  0  0  0  0  0  0  0  0  0
   18.5121    1.1755   13.2793 H   0  0  0  0  0  0  0  0  0  0  0  0
   16.7644    1.8603   15.8863 H   0  0  0  0  0  0  0  0  0  0  0  0
   16.3918    0.2924   16.3968 H   0  0  0  0  0  0  0  0  0  0  0  0
   14.4035    1.2515   15.5853 H   0  0  0  0  0  0  0  0  0  0  0  0
   15.0702    1.6000   14.0241 H   0  0  0  0  0  0  0  0  0  0  0  0
   14.2673   -1.0295   16.3515 H   0  0  0  0  0  0  0  0  0  0  0  0
   15.0108   -2.2133   15.2839 H   0  0  0  0  0  0  0  0  0  0  0  0
   12.8775   -3.0980   15.1145 H   0  0  0  0  0  0  0  0  0  0  0  0
   12.1067   -1.5909   15.5581 H   0  0  0  0  0  0  0  0  0  0  0  0
   13.2773   -2.3007   12.8824 H   0  0  0  0  0  0  0  0  0  0  0  0
   11.6918   -1.5777   13.2617 H   0  0  0  0  0  0  0  0  0  0  0  0
   13.6780    0.0298   12.4550 H   0  0  0  0  0  0  0  0  0  0  0  0
   12.7257    0.5213   13.8678 H   0  0  0  0  0  0  0  0  0  0  0  0
  1  2  1  0
  2  3  1  0
  3  4  1  0
  3  5  1  0
  5  6  2  0
  5  7  1  0
  7  8  1  0
  7  9  1  0
  9 10  1  0
 10 11  1  0
 11 12  1  0
 12 13  1  0
 13 14  1  0
 14 15  1  0
 15 11  1  0
  1 16  1  0
  1 17  1  0
  1 18  1  0
  2 19  1  0
  2 20  1  0
  3 21  1  0
  8 22  1  0
  8 23  1  0
  8 24  1  0
  9 25  1  0
  9 26  1  0
 10 27  1  0
 10 28  1  0
 12 29  1  0
 12 30  1  0
 13 31  1  0
 13 32  1  0
 14 33  1  0
 14 34  1  0
 15 35  1  0
 15 36  1  0
M  END
>  <Energy>  (29) 
131.07652468410558

>  <compound_id>  (29) 
77237

>  <target_id>  (29) 
1

>  <reference_id>  (29) 
124

>  <inspiration_ids>  (29) 
[124, 97]

>  <energy_score>  (29) 
71.09619055601416

>  <distance_score>  (29) 
1.7017007678603022

>  <path>  (29) 
/opt/xchem-fragalysis-2/maxwin/BulkDock/SCRATCH/511024/C77237-P124/C77237-P124.minimised.mol

>  <scratch_subdir>  (29) 
/opt/xchem-fragalysis-2/maxwin/BulkDock/SCRATCH/511024/C77237-P124

>  <fragmenstein_runtime>  (29) 
1.8652589321136475

>  <fragmenstein_outcome>  (29) 
too moved

>  <fragmenstein_mode>  (29) 
expansion

>  <fragmenstein_error>  (29) 


$$$$
C77237-P97
     RDKit          3D

 36 36  0  0  0  0  0  0  0  0999 V2000
   16.0606   -2.5651   17.6598 C   0  0  0  0  0  0  0  0  0  0  0  0
   16.6980   -2.5754   16.2767 C   0  0  0  0  0  0  0  0  0  0  0  0
   17.8604   -1.5872   16.2139 C   0  0  0  0  0  0  0  0  0  0  0  0
   19.5516   -2.5345   15.8996 Br  0  0  0  0  0  0  0  0  0  0  0  0
   17.7187   -0.5440   15.0939 C   0  0  0  0  0  0  0  0  0  0  0  0
   17.8120   -0.7903   13.9454 O   0  0  0  0  0  0  0  0  0  0  0  0
   17.5431    0.7974   15.8062 N   0  0  0  0  0  0  0  0  0  0  0  0
   17.5399    2.1884   15.2684 C   0  0  0  0  0  0  0  0  0  0  0  0
   16.0601    1.1410   15.9836 C   0  0  0  0  0  0  0  0  0  0  0  0
   15.0849    0.8814   14.7815 C   0  0  0  0  0  0  0  0  0  0  0  0
   14.3175   -0.3648   14.8489 N   0  0  0  0  0  0  0  0  0  0  0  0
   13.3040   -0.4278   15.8961 C   0  0  0  0  0  0  0  0  0  0  0  0
   12.4787   -1.6241   15.4634 C   0  0  0  0  0  0  0  0  0  0  0  0
   12.3861   -1.4418   13.9630 C   0  0  0  0  0  0  0  0  0  0  0  0
   13.6280   -0.6479   13.5824 C   0  0  0  0  0  0  0  0  0  0  0  0
   16.7741   -2.8998   18.4199 H   0  0  0  0  0  0  0  0  0  0  0  0
   15.2014   -3.2433   17.6831 H   0  0  0  0  0  0  0  0  0  0  0  0
   15.7095   -1.5678   17.9372 H   0  0  0  0  0  0  0  0  0  0  0  0
   17.0129   -3.6017   16.0547 H   0  0  0  0  0  0  0  0  0  0  0  0
   15.9324   -2.3299   15.5363 H   0  0  0  0  0  0  0  0  0  0  0  0
   18.0294   -1.0928   17.1768 H   0  0  0  0  0  0  0  0  0  0  0  0
   17.4524    2.9698   16.0381 H   0  0  0  0  0  0  0  0  0  0  0  0
   16.9785    2.3798   14.3455 H   0  0  0  0  0  0  0  0  0  0  0  0
   18.5776    2.3056   14.9199 H   0  0  0  0  0  0  0  0  0  0  0  0
   15.8142    2.0693   16.5321 H   0  0  0  0  0  0  0  0  0  0  0  0
   15.7788    0.4057   16.7502 H   0  0  0  0  0  0  0  0  0  0  0  0
   14.3939    1.7330   14.7211 H   0  0  0  0  0  0  0  0  0  0  0  0
   15.6493    0.8796   13.8417 H   0  0  0  0  0  0  0  0  0  0  0  0
   12.6823    0.4761   15.9129 H   0  0  0  0  0  0  0  0  0  0  0  0
   13.7272   -0.5807   16.8920 H   0  0  0  0  0  0  0  0  0  0  0  0
   12.9988   -2.5599   15.7022 H   0  0  0  0  0  0  0  0  0  0  0  0
   11.4928   -1.6491   15.9338 H   0  0  0  0  0  0  0  0  0  0  0  0
   12.3183   -2.4006   13.4420 H   0  0  0  0  0  0  0  0  0  0  0  0
   11.4975   -0.8492   13.7248 H   0  0  0  0  0  0  0  0  0  0  0  0
   14.2791   -1.2262   12.9186 H   0  0  0  0  0  0  0  0  0  0  0  0
   13.3257    0.2647   13.0536 H   0  0  0  0  0  0  0  0  0  0  0  0
  1  2  1  0
  2  3  1  0
  3  4  1  0
  3  5  1  0
  5  6  2  0
  5  7  1  0
  7  8  1  0
  7  9  1  0
  9 10  1  0
 10 11  1  0
 11 12  1  0
 12 13  1  0
 13 14  1  0
 14 15  1  0
 15 11  1  0
  1 16  1  0
  1 17  1  0
  1 18  1  0
  2 19  1  0
  2 20  1  0
  3 21  1  0
  8 22  1  0
  8 23  1  0
  8 24  1  0
  9 25  1  0
  9 26  1  0
 10 27  1  0
 10 28  1  0
 12 29  1  0
 12 30  1  0
 13 31  1  0
 13 32  1  0
 14 33  1  0
 14 34  1  0
 15 35  1  0
 15 36  1  0
M  END
>  <Energy>  (30) 
125.92748679567769

>  <compound_id>  (30) 
77237

>  <target_id>  (30) 
1

>  <reference_id>  (30) 
97

>  <inspiration_ids>  (30) 
[124, 97]

>  <energy_score>  (30) 
65.94715266758692

>  <distance_score>  (30) 
1.9521108157603178

>  <path>  (30) 
/opt/xchem-fragalysis-2/maxwin/BulkDock/SCRATCH/511024/C77237-P97/C77237-P97.minimised.mol

>  <scratch_subdir>  (30) 
/opt/xchem-fragalysis-2/maxwin/BulkDock/SCRATCH/511024/C77237-P97

>  <fragmenstein_runtime>  (30) 
1.8591125011444092

>  <fragmenstein_outcome>  (30) 
too moved

>  <fragmenstein_mode>  (30) 
expansion

>  <fragmenstein_error>  (30) 


$$$$
C77238-P124
     RDKit          3D

 31 31  0  0  0  0  0  0  0  0999 V2000
   15.3960    1.2105   16.1315 C   0  0  0  0  0  0  0  0  0  0  0  0
   15.0810    0.6373   14.7398 C   0  0  0  0  0  0  0  0  0  0  0  0
   16.3643    0.1071   14.0486 C   0  0  0  0  0  0  0  0  0  0  0  0
   17.0682   -0.8826   14.8226 N   0  0  0  0  0  0  0  0  0  0  0  0
   17.6458   -2.2633   14.4077 C   0  0  0  0  0  0  0  0  0  0  0  0
   17.7066   -2.7736   13.3592 O   0  0  0  0  0  0  0  0  0  0  0  0
   18.1664   -2.9577   15.6613 C   0  0  0  0  0  0  0  0  0  0  0  0
   17.1830   -2.9241   16.7476 C   0  0  0  0  0  0  0  0  0  0  0  0
   16.4408   -2.7797   17.6283 N   0  0  0  0  0  0  0  0  0  0  0  0
   13.9163   -0.2525   14.8406 N   0  0  0  0  0  0  0  0  0  0  0  0
   14.0959   -1.5979   15.3726 C   0  0  0  0  0  0  0  0  0  0  0  0
   12.7226   -2.2214   15.1638 C   0  0  0  0  0  0  0  0  0  0  0  0
   12.1553   -1.4944   13.9598 C   0  0  0  0  0  0  0  0  0  0  0  0
   13.1878   -0.4391   13.5898 C   0  0  0  0  0  0  0  0  0  0  0  0
   14.5557    1.8081   16.4989 H   0  0  0  0  0  0  0  0  0  0  0  0
   16.2665    1.8744   16.0885 H   0  0  0  0  0  0  0  0  0  0  0  0
   15.6020    0.4312   16.8719 H   0  0  0  0  0  0  0  0  0  0  0  0
   14.7619    1.5031   14.1421 H   0  0  0  0  0  0  0  0  0  0  0  0
   17.0654    0.9351   13.8953 H   0  0  0  0  0  0  0  0  0  0  0  0
   16.1400   -0.3174   13.0651 H   0  0  0  0  0  0  0  0  0  0  0  0
   17.1033   -0.7899   15.8312 H   0  0  0  0  0  0  0  0  0  0  0  0
   19.0978   -2.4654   15.9600 H   0  0  0  0  0  0  0  0  0  0  0  0
   18.4043   -3.9966   15.4079 H   0  0  0  0  0  0  0  0  0  0  0  0
   14.3712   -1.6011   16.4281 H   0  0  0  0  0  0  0  0  0  0  0  0
   14.8296   -2.1745   14.8024 H   0  0  0  0  0  0  0  0  0  0  0  0
   12.7755   -3.2982   15.0104 H   0  0  0  0  0  0  0  0  0  0  0  0
   12.0616   -2.0868   16.0223 H   0  0  0  0  0  0  0  0  0  0  0  0
   11.1970   -1.0352   14.2173 H   0  0  0  0  0  0  0  0  0  0  0  0
   11.9814   -2.1950   13.1462 H   0  0  0  0  0  0  0  0  0  0  0  0
   12.7071    0.4813   13.2433 H   0  0  0  0  0  0  0  0  0  0  0  0
   13.8372   -0.8160   12.7907 H   0  0  0  0  0  0  0  0  0  0  0  0
  1  2  1  0
  2  3  1  0
  3  4  1  0
  4  5  1  0
  5  6  2  0
  5  7  1  0
  7  8  1  0
  8  9  3  0
  2 10  1  0
 10 11  1  0
 11 12  1  0
 12 13  1  0
 13 14  1  0
 14 10  1  0
  1 15  1  0
  1 16  1  0
  1 17  1  0
  2 18  1  0
  3 19  1  0
  3 20  1  0
  4 21  1  0
  7 22  1  0
  7 23  1  0
 11 24  1  0
 11 25  1  0
 12 26  1  0
 12 27  1  0
 13 28  1  0
 13 29  1  0
 14 30  1  0
 14 31  1  0
M  END
>  <Energy>  (31) 
31.679214053584673

>  <compound_id>  (31) 
77238

>  <target_id>  (31) 
1

>  <reference_id>  (31) 
124

>  <inspiration_ids>  (31) 
[124, 97]

>  <energy_score>  (31) 
2.739831622505889

>  <distance_score>  (31) 
1.467872923620347

>  <path>  (31) 
/opt/xchem-fragalysis-2/maxwin/BulkDock/SCRATCH/511024/C77238-P124/C77238-P124.minimised.mol

>  <scratch_subdir>  (31) 
/opt/xchem-fragalysis-2/maxwin/BulkDock/SCRATCH/511024/C77238-P124

>  <fragmenstein_runtime>  (31) 
2.2449886798858643

>  <fragmenstein_outcome>  (31) 
too moved

>  <fragmenstein_mode>  (31) 
expansion

>  <fragmenstein_error>  (31) 


$$$$
C77238-P97
     RDKit          3D

 31 31  0  0  0  0  0  0  0  0999 V2000
   15.3270    1.3666   16.5673 C   0  0  0  0  0  0  0  0  0  0  0  0
   14.9494    1.0653   15.1084 C   0  0  0  0  0  0  0  0  0  0  0  0
   16.2091    0.6449   14.3033 C   0  0  0  0  0  0  0  0  0  0  0  0
   16.7797   -0.5995   14.7404 N   0  0  0  0  0  0  0  0  0  0  0  0
   16.6969   -2.0193   14.1187 C   0  0  0  0  0  0  0  0  0  0  0  0
   16.2178   -2.3792   13.1172 O   0  0  0  0  0  0  0  0  0  0  0  0
   17.3718   -2.9930   15.0796 C   0  0  0  0  0  0  0  0  0  0  0  0
   16.8346   -2.8506   16.4363 C   0  0  0  0  0  0  0  0  0  0  0  0
   16.4592   -2.6338   17.5135 N   0  0  0  0  0  0  0  0  0  0  0  0
   13.7328    0.2398   15.0403 N   0  0  0  0  0  0  0  0  0  0  0  0
   13.6797   -0.9803   15.8385 C   0  0  0  0  0  0  0  0  0  0  0  0
   12.3941   -1.6428   15.3707 C   0  0  0  0  0  0  0  0  0  0  0  0
   12.1527   -1.0863   13.9773 C   0  0  0  0  0  0  0  0  0  0  0  0
   13.3203   -0.1562   13.6982 C   0  0  0  0  0  0  0  0  0  0  0  0
   14.4676    1.7632   17.1201 H   0  0  0  0  0  0  0  0  0  0  0  0
   16.1168    2.1249   16.6101 H   0  0  0  0  0  0  0  0  0  0  0  0
   15.6906    0.4790   17.0948 H   0  0  0  0  0  0  0  0  0  0  0  0
   14.6547    2.0341   14.6804 H   0  0  0  0  0  0  0  0  0  0  0  0
   15.9750    0.5569   13.2379 H   0  0  0  0  0  0  0  0  0  0  0  0
   16.9894    1.4071   14.4048 H   0  0  0  0  0  0  0  0  0  0  0  0
   17.3403   -0.6313   15.5853 H   0  0  0  0  0  0  0  0  0  0  0  0
   18.4500   -2.8029   15.0596 H   0  0  0  0  0  0  0  0  0  0  0  0
   17.2065   -4.0130   14.7175 H   0  0  0  0  0  0  0  0  0  0  0  0
   13.6442   -0.7872   16.9146 H   0  0  0  0  0  0  0  0  0  0  0  0
   14.5133   -1.6471   15.6267 H   0  0  0  0  0  0  0  0  0  0  0  0
   12.4805   -2.7341   15.3665 H   0  0  0  0  0  0  0  0  0  0  0  0
   11.5557   -1.3745   16.0217 H   0  0  0  0  0  0  0  0  0  0  0  0
   11.2134   -0.5234   13.9658 H   0  0  0  0  0  0  0  0  0  0  0  0
   12.0914   -1.8902   13.2395 H   0  0  0  0  0  0  0  0  0  0  0  0
   13.0126    0.6984   13.0875 H   0  0  0  0  0  0  0  0  0  0  0  0
   14.0988   -0.7072   13.1618 H   0  0  0  0  0  0  0  0  0  0  0  0
  1  2  1  0
  2  3  1  0
  3  4  1  0
  4  5  1  0
  5  6  2  0
  5  7  1  0
  7  8  1  0
  8  9  3  0
  2 10  1  0
 10 11  1  0
 11 12  1  0
 12 13  1  0
 13 14  1  0
 14 10  1  0
  1 15  1  0
  1 16  1  0
  1 17  1  0
  2 18  1  0
  3 19  1  0
  3 20  1  0
  4 21  1  0
  7 22  1  0
  7 23  1  0
 11 24  1  0
 11 25  1  0
 12 26  1  0
 12 27  1  0
 13 28  1  0
 13 29  1  0
 14 30  1  0
 14 31  1  0
M  END
>  <Energy>  (32) 
30.261768909499267

>  <compound_id>  (32) 
77238

>  <target_id>  (32) 
1

>  <reference_id>  (32) 
97

>  <inspiration_ids>  (32) 
[124, 97]

>  <energy_score>  (32) 
1.3223864784202704

>  <distance_score>  (32) 
1.2393323613823457

>  <path>  (32) 
/opt/xchem-fragalysis-2/maxwin/BulkDock/SCRATCH/511024/C77238-P97/C77238-P97.minimised.mol

>  <scratch_subdir>  (32) 
/opt/xchem-fragalysis-2/maxwin/BulkDock/SCRATCH/511024/C77238-P97

>  <fragmenstein_runtime>  (32) 
1.9093732833862305

>  <fragmenstein_outcome>  (32) 
too moved

>  <fragmenstein_mode>  (32) 
expansion

>  <fragmenstein_error>  (32) 


$$$$
C77239-P124
     RDKit          3D

 46 46  0  0  0  0  0  0  0  0999 V2000
   16.1340   -3.6677   16.0030 C   0  0  0  0  0  0  0  0  0  0  0  0
   16.7876   -2.4354   16.5956 C   0  0  0  0  0  0  0  0  0  0  0  0
   18.2372   -2.3517   16.2317 C   0  0  0  0  0  0  0  0  0  0  0  0
   18.8160   -1.6419   15.2438 C   0  0  0  0  0  0  0  0  0  0  0  0
   20.3112   -1.6671   15.0149 C   0  0  0  0  0  0  0  0  0  0  0  0
   20.7354   -2.3245   13.6957 C   0  0  0  0  0  0  0  0  0  0  0  0
   20.3446   -3.7928   13.5998 C   0  0  0  0  0  0  0  0  0  0  0  0
   18.0444   -0.8261   14.2412 C   0  0  0  0  0  0  0  0  0  0  0  0
   17.3760   -1.3678   13.4049 O   0  0  0  0  0  0  0  0  0  0  0  0
   18.3474    0.5498   14.4367 N   0  0  0  0  0  0  0  0  0  0  0  0
   18.0286    1.7370   13.6108 C   0  0  0  0  0  0  0  0  0  0  0  0
   17.3047    1.1961   15.3725 C   0  0  0  0  0  0  0  0  0  0  0  0
   15.8209    1.6314   15.0479 C   0  0  0  0  0  0  0  0  0  0  0  0
   15.0190    0.8793   14.0852 N   0  0  0  0  0  0  0  0  0  0  0  0
   14.4891   -0.3926   14.5756 C   0  0  0  0  0  0  0  0  0  0  0  0
   13.2801   -0.6906   13.6963 C   0  0  0  0  0  0  0  0  0  0  0  0
   13.0161    0.5992   12.9374 C   0  0  0  0  0  0  0  0  0  0  0  0
   13.8399    1.6405   13.6621 C   0  0  0  0  0  0  0  0  0  0  0  0
   15.0810   -3.7183   16.2975 H   0  0  0  0  0  0  0  0  0  0  0  0
   16.1822   -3.6483   14.9100 H   0  0  0  0  0  0  0  0  0  0  0  0
   16.6280   -4.5823   16.3474 H   0  0  0  0  0  0  0  0  0  0  0  0
   16.2490   -1.5383   16.2987 H   0  0  0  0  0  0  0  0  0  0  0  0
   16.7088   -2.4752   17.6888 H   0  0  0  0  0  0  0  0  0  0  0  0
   18.8860   -2.9509   16.8698 H   0  0  0  0  0  0  0  0  0  0  0  0
   20.6983   -0.6409   15.0398 H   0  0  0  0  0  0  0  0  0  0  0  0
   20.8133   -2.1875   15.8411 H   0  0  0  0  0  0  0  0  0  0  0  0
   21.8256   -2.2468   13.6053 H   0  0  0  0  0  0  0  0  0  0  0  0
   20.3127   -1.7800   12.8432 H   0  0  0  0  0  0  0  0  0  0  0  0
   19.2578   -3.9198   13.5849 H   0  0  0  0  0  0  0  0  0  0  0  0
   20.7482   -4.3620   14.4431 H   0  0  0  0  0  0  0  0  0  0  0  0
   20.7422   -4.2273   12.6770 H   0  0  0  0  0  0  0  0  0  0  0  0
   18.8113    1.6957   12.8370 H   0  0  0  0  0  0  0  0  0  0  0  0
   17.1268    1.6346   12.9991 H   0  0  0  0  0  0  0  0  0  0  0  0
   18.1985    2.7275   14.0590 H   0  0  0  0  0  0  0  0  0  0  0  0
   17.1820    0.4488   16.1678 H   0  0  0  0  0  0  0  0  0  0  0  0
   17.8058    2.0142   15.9210 H   0  0  0  0  0  0  0  0  0  0  0  0
   15.8870    2.6689   14.6882 H   0  0  0  0  0  0  0  0  0  0  0  0
   15.2856    1.7154   16.0046 H   0  0  0  0  0  0  0  0  0  0  0  0
   15.2094   -1.2018   14.4821 H   0  0  0  0  0  0  0  0  0  0  0  0
   14.1735   -0.3253   15.6221 H   0  0  0  0  0  0  0  0  0  0  0  0
   13.4834   -1.5096   12.9978 H   0  0  0  0  0  0  0  0  0  0  0  0
   12.4168   -0.9775   14.3056 H   0  0  0  0  0  0  0  0  0  0  0  0
   11.9530    0.8554   12.9064 H   0  0  0  0  0  0  0  0  0  0  0  0
   13.3708    0.4995   11.9042 H   0  0  0  0  0  0  0  0  0  0  0  0
   13.2914    2.0446   14.5202 H   0  0  0  0  0  0  0  0  0  0  0  0
   14.1047    2.4694   12.9976 H   0  0  0  0  0  0  0  0  0  0  0  0
  1  2  1  0
  2  3  1  0
  3  4  2  3
  4  5  1  0
  5  6  1  0
  6  7  1  0
  4  8  1  0
  8  9  2  0
  8 10  1  0
 10 11  1  0
 10 12  1  0
 12 13  1  0
 13 14  1  0
 14 15  1  0
 15 16  1  0
 16 17  1  0
 17 18  1  0
 18 14  1  0
  1 19  1  0
  1 20  1  0
  1 21  1  0
  2 22  1  0
  2 23  1  0
  3 24  1  0
  5 25  1  0
  5 26  1  0
  6 27  1  0
  6 28  1  0
  7 29  1  0
  7 30  1  0
  7 31  1  0
 11 32  1  0
 11 33  1  0
 11 34  1  0
 12 35  1  0
 12 36  1  0
 13 37  1  0
 13 38  1  0
 15 39  1  0
 15 40  1  0
 16 41  1  0
 16 42  1  0
 17 43  1  0
 17 44  1  0
 18 45  1  0
 18 46  1  0
M  END
>  <Energy>  (33) 
97.512099933067773

>  <compound_id>  (33) 
77239

>  <target_id>  (33) 
1

>  <reference_id>  (33) 
124

>  <inspiration_ids>  (33) 
[124, 97]

>  <energy_score>  (33) 
30.806774311790093

>  <distance_score>  (33) 
2.1986063181535576

>  <path>  (33) 
/opt/xchem-fragalysis-2/maxwin/BulkDock/SCRATCH/511024/C77239-P124/C77239-P124.minimised.mol

>  <scratch_subdir>  (33) 
/opt/xchem-fragalysis-2/maxwin/BulkDock/SCRATCH/511024/C77239-P124

>  <fragmenstein_runtime>  (33) 
10.066789150238037

>  <fragmenstein_outcome>  (33) 
too moved

>  <fragmenstein_mode>  (33) 
expansion

>  <fragmenstein_error>  (33) 


$$$$
C77239-P97
     RDKit          3D

 46 46  0  0  0  0  0  0  0  0999 V2000
   15.9032   -2.7818   16.3264 C   0  0  0  0  0  0  0  0  0  0  0  0
   16.9020   -2.8922   15.1843 C   0  0  0  0  0  0  0  0  0  0  0  0
   17.9728   -1.8435   15.2984 C   0  0  0  0  0  0  0  0  0  0  0  0
   18.2551   -0.8275   14.4566 C   0  0  0  0  0  0  0  0  0  0  0  0
   19.3751    0.1468   14.7420 C   0  0  0  0  0  0  0  0  0  0  0  0
   20.7219   -0.2589   14.1328 C   0  0  0  0  0  0  0  0  0  0  0  0
   20.7514   -0.2061   12.6127 C   0  0  0  0  0  0  0  0  0  0  0  0
   17.4475   -0.6039   13.2069 C   0  0  0  0  0  0  0  0  0  0  0  0
   17.3493   -1.4756   12.3872 O   0  0  0  0  0  0  0  0  0  0  0  0
   16.9514    0.7287   13.2036 N   0  0  0  0  0  0  0  0  0  0  0  0
   16.2527    1.5006   12.1448 C   0  0  0  0  0  0  0  0  0  0  0  0
   15.5563    0.7763   13.8498 C   0  0  0  0  0  0  0  0  0  0  0  0
   14.5084   -0.3263   13.4878 C   0  0  0  0  0  0  0  0  0  0  0  0
   13.3763   -0.3051   14.4215 N   0  0  0  0  0  0  0  0  0  0  0  0
   12.6170   -1.5586   14.3945 C   0  0  0  0  0  0  0  0  0  0  0  0
   11.4058   -1.1828   15.2205 C   0  0  0  0  0  0  0  0  0  0  0  0
   11.1312    0.2674   14.8456 C   0  0  0  0  0  0  0  0  0  0  0  0
   12.3912    0.7370   14.1258 C   0  0  0  0  0  0  0  0  0  0  0  0
   15.3999   -1.8097   16.3212 H   0  0  0  0  0  0  0  0  0  0  0  0
   15.1395   -3.5610   16.2381 H   0  0  0  0  0  0  0  0  0  0  0  0
   16.3958   -2.9037   17.2971 H   0  0  0  0  0  0  0  0  0  0  0  0
   17.3818   -3.8774   15.2234 H   0  0  0  0  0  0  0  0  0  0  0  0
   16.3716   -2.8523   14.2318 H   0  0  0  0  0  0  0  0  0  0  0  0
   18.5984   -1.9507   16.1843 H   0  0  0  0  0  0  0  0  0  0  0  0
   19.1160    1.1600   14.4143 H   0  0  0  0  0  0  0  0  0  0  0  0
   19.5075    0.2276   15.8296 H   0  0  0  0  0  0  0  0  0  0  0  0
   21.4907    0.4232   14.5158 H   0  0  0  0  0  0  0  0  0  0  0  0
   21.0014   -1.2655   14.4666 H   0  0  0  0  0  0  0  0  0  0  0  0
   20.1110   -0.9748   12.1716 H   0  0  0  0  0  0  0  0  0  0  0  0
   20.4261    0.7724   12.2454 H   0  0  0  0  0  0  0  0  0  0  0  0
   21.7701   -0.3813   12.2519 H   0  0  0  0  0  0  0  0  0  0  0  0
   15.9805    2.5292   12.4208 H   0  0  0  0  0  0  0  0  0  0  0  0
   17.0461    1.6510   11.3967 H   0  0  0  0  0  0  0  0  0  0  0  0
   15.5019    0.9565   11.5619 H   0  0  0  0  0  0  0  0  0  0  0  0
   15.8069    0.5576   14.9023 H   0  0  0  0  0  0  0  0  0  0  0  0
   15.1113    1.7810   13.9595 H   0  0  0  0  0  0  0  0  0  0  0  0
   14.9913   -1.3025   13.5644 H   0  0  0  0  0  0  0  0  0  0  0  0
   14.1540   -0.2495   12.4545 H   0  0  0  0  0  0  0  0  0  0  0  0
   12.3242   -1.8426   13.3770 H   0  0  0  0  0  0  0  0  0  0  0  0
   13.1668   -2.3853   14.8523 H   0  0  0  0  0  0  0  0  0  0  0  0
   10.5484   -1.8368   15.0436 H   0  0  0  0  0  0  0  0  0  0  0  0
   11.6595   -1.2428   16.2836 H   0  0  0  0  0  0  0  0  0  0  0  0
   10.9316    0.8635   15.7421 H   0  0  0  0  0  0  0  0  0  0  0  0
   10.2594    0.3505   14.1885 H   0  0  0  0  0  0  0  0  0  0  0  0
   12.7130    1.7180   14.4885 H   0  0  0  0  0  0  0  0  0  0  0  0
   12.1868    0.8166   13.0506 H   0  0  0  0  0  0  0  0  0  0  0  0
  1  2  1  0
  2  3  1  0
  3  4  2  3
  4  5  1  0
  5  6  1  0
  6  7  1  0
  4  8  1  0
  8  9  2  0
  8 10  1  0
 10 11  1  0
 10 12  1  0
 12 13  1  0
 13 14  1  0
 14 15  1  0
 15 16  1  0
 16 17  1  0
 17 18  1  0
 18 14  1  0
  1 19  1  0
  1 20  1  0
  1 21  1  0
  2 22  1  0
  2 23  1  0
  3 24  1  0
  5 25  1  0
  5 26  1  0
  6 27  1  0
  6 28  1  0
  7 29  1  0
  7 30  1  0
  7 31  1  0
 11 32  1  0
 11 33  1  0
 11 34  1  0
 12 35  1  0
 12 36  1  0
 13 37  1  0
 13 38  1  0
 15 39  1  0
 15 40  1  0
 16 41  1  0
 16 42  1  0
 17 43  1  0
 17 44  1  0
 18 45  1  0
 18 46  1  0
M  END
>  <Energy>  (34) 
85.610119991432867

>  <compound_id>  (34) 
77239

>  <target_id>  (34) 
1

>  <reference_id>  (34) 
97

>  <inspiration_ids>  (34) 
[124, 97]

>  <energy_score>  (34) 
18.9047943701552

>  <distance_score>  (34) 
1.9630400505481354

>  <path>  (34) 
/opt/xchem-fragalysis-2/maxwin/BulkDock/SCRATCH/511024/C77239-P97/C77239-P97.minimised.mol

>  <scratch_subdir>  (34) 
/opt/xchem-fragalysis-2/maxwin/BulkDock/SCRATCH/511024/C77239-P97

>  <fragmenstein_runtime>  (34) 
11.648627996444702

>  <fragmenstein_outcome>  (34) 
too moved

>  <fragmenstein_mode>  (34) 
expansion

>  <fragmenstein_error>  (34) 


$$$$
C77240-P124
     RDKit          3D

 37 37  0  0  0  0  0  0  0  0999 V2000
   17.5888   -2.3321   18.1061 C   0  0  0  0  0  0  0  0  0  0  0  0
   17.0163   -2.7949   16.7808 C   0  0  0  0  0  0  0  0  0  0  0  0
   17.9650   -3.6323   15.9750 C   0  0  0  0  0  0  0  0  0  0  0  0
   18.4488   -3.3615   14.7472 C   0  0  0  0  0  0  0  0  0  0  0  0
   19.4455   -4.2211   14.0364 C   0  0  0  0  0  0  0  0  0  0  0  0
   18.0739   -2.1124   14.0135 C   0  0  0  0  0  0  0  0  0  0  0  0
   18.8478   -1.2731   13.7885 O   0  0  0  0  0  0  0  0  0  0  0  0
   16.5744   -2.2002   13.6842 N   0  0  0  0  0  0  0  0  0  0  0  0
   15.6929   -1.2364   13.0948 C   0  0  0  0  0  0  0  0  0  0  0  0
   14.9720   -0.3910   14.1446 C   0  0  0  0  0  0  0  0  0  0  0  0
   13.8328   -1.0683   14.9202 C   0  0  0  0  0  0  0  0  0  0  0  0
   12.7318   -1.6997   14.0961 C   0  0  0  0  0  0  0  0  0  0  0  0
   12.0074   -2.5856   15.0947 C   0  0  0  0  0  0  0  0  0  0  0  0
   13.0603   -3.0006   16.0992 C   0  0  0  0  0  0  0  0  0  0  0  0
   14.2208   -2.1560   15.8310 N   0  0  0  0  0  0  0  0  0  0  0  0
   18.4760   -1.7077   17.9557 H   0  0  0  0  0  0  0  0  0  0  0  0
   17.8763   -3.1836   18.7320 H   0  0  0  0  0  0  0  0  0  0  0  0
   16.8479   -1.7431   18.6563 H   0  0  0  0  0  0  0  0  0  0  0  0
   16.1307   -3.4047   16.9819 H   0  0  0  0  0  0  0  0  0  0  0  0
   16.7248   -1.8948   16.2401 H   0  0  0  0  0  0  0  0  0  0  0  0
   18.2938   -4.5483   16.4635 H   0  0  0  0  0  0  0  0  0  0  0  0
   19.0475   -4.5456   13.0693 H   0  0  0  0  0  0  0  0  0  0  0  0
   20.3756   -3.6705   13.8615 H   0  0  0  0  0  0  0  0  0  0  0  0
   19.6934   -5.1194   14.6114 H   0  0  0  0  0  0  0  0  0  0  0  0
   16.1842   -3.0410   14.1012 H   0  0  0  0  0  0  0  0  0  0  0  0
   16.3140   -0.5746   12.4812 H   0  0  0  0  0  0  0  0  0  0  0  0
   15.0064   -1.7603   12.4264 H   0  0  0  0  0  0  0  0  0  0  0  0
   14.5403    0.4743   13.6241 H   0  0  0  0  0  0  0  0  0  0  0  0
   15.7024    0.0128   14.8577 H   0  0  0  0  0  0  0  0  0  0  0  0
   13.3931   -0.2664   15.5127 H   0  0  0  0  0  0  0  0  0  0  0  0
   13.1231   -2.3183   13.2852 H   0  0  0  0  0  0  0  0  0  0  0  0
   12.0610   -0.9546   13.6581 H   0  0  0  0  0  0  0  0  0  0  0  0
   11.2146   -2.0183   15.5907 H   0  0  0  0  0  0  0  0  0  0  0  0
   11.5303   -3.4376   14.6034 H   0  0  0  0  0  0  0  0  0  0  0  0
   13.3360   -4.0520   15.9928 H   0  0  0  0  0  0  0  0  0  0  0  0
   12.6990   -2.8763   17.1213 H   0  0  0  0  0  0  0  0  0  0  0  0
   14.5808   -1.7602   16.6976 H   0  0  0  0  0  0  0  0  0  0  0  0
  1  2  1  0
  2  3  1  0
  3  4  2  3
  4  5  1  0
  4  6  1  0
  6  7  2  0
  6  8  1  0
  8  9  1  0
  9 10  1  0
 10 11  1  0
 11 12  1  0
 12 13  1  0
 13 14  1  0
 14 15  1  0
 15 11  1  0
  1 16  1  0
  1 17  1  0
  1 18  1  0
  2 19  1  0
  2 20  1  0
  3 21  1  0
  5 22  1  0
  5 23  1  0
  5 24  1  0
  8 25  1  0
  9 26  1  0
  9 27  1  0
 10 28  1  0
 10 29  1  0
 11 30  1  0
 12 31  1  0
 12 32  1  0
 13 33  1  0
 13 34  1  0
 14 35  1  0
 14 36  1  0
 15 37  1  0
M  END
>  <Energy>  (35) 
1.1552892280290923

>  <compound_id>  (35) 
77240

>  <target_id>  (35) 
1

>  <reference_id>  (35) 
124

>  <inspiration_ids>  (35) 
[124, 97]

>  <energy_score>  (35) 
-12.04310371977801

>  <distance_score>  (35) 
1.8449317929534503

>  <path>  (35) 
/opt/xchem-fragalysis-2/maxwin/BulkDock/SCRATCH/511024/C77240-P124/C77240-P124.minimised.mol

>  <scratch_subdir>  (35) 
/opt/xchem-fragalysis-2/maxwin/BulkDock/SCRATCH/511024/C77240-P124

>  <fragmenstein_runtime>  (35) 
3.194842576980591

>  <fragmenstein_outcome>  (35) 
too moved

>  <fragmenstein_mode>  (35) 
expansion

>  <fragmenstein_error>  (35) 


$$$$
C77240-P97
     RDKit          3D

 37 37  0  0  0  0  0  0  0  0999 V2000
   17.1483   -2.2409   17.5706 C   0  0  0  0  0  0  0  0  0  0  0  0
   17.0357   -3.1333   16.3430 C   0  0  0  0  0  0  0  0  0  0  0  0
   18.1899   -2.9445   15.4004 C   0  0  0  0  0  0  0  0  0  0  0  0
   18.2102   -2.3306   14.1992 C   0  0  0  0  0  0  0  0  0  0  0  0
   19.4071   -2.3143   13.2994 C   0  0  0  0  0  0  0  0  0  0  0  0
   17.0081   -1.6496   13.6227 C   0  0  0  0  0  0  0  0  0  0  0  0
   16.4596   -2.0445   12.6769 O   0  0  0  0  0  0  0  0  0  0  0  0
   16.7068   -0.4335   14.5152 N   0  0  0  0  0  0  0  0  0  0  0  0
   15.6080    0.5002   14.4864 C   0  0  0  0  0  0  0  0  0  0  0  0
   14.6442    0.2139   15.6365 C   0  0  0  0  0  0  0  0  0  0  0  0
   13.9906   -1.1658   15.5090 C   0  0  0  0  0  0  0  0  0  0  0  0
   12.6350   -1.1825   14.8304 C   0  0  0  0  0  0  0  0  0  0  0  0
   12.0094   -2.4864   15.3211 C   0  0  0  0  0  0  0  0  0  0  0  0
   12.9122   -2.9822   16.4376 C   0  0  0  0  0  0  0  0  0  0  0  0
   13.6648   -1.7852   16.8091 N   0  0  0  0  0  0  0  0  0  0  0  0
   17.0484   -1.1834   17.3128 H   0  0  0  0  0  0  0  0  0  0  0  0
   18.1164   -2.3750   18.0660 H   0  0  0  0  0  0  0  0  0  0  0  0
   16.3717   -2.4919   18.2992 H   0  0  0  0  0  0  0  0  0  0  0  0
   16.0848   -2.9935   15.8373 H   0  0  0  0  0  0  0  0  0  0  0  0
   17.0397   -4.1810   16.6690 H   0  0  0  0  0  0  0  0  0  0  0  0
   19.1107   -3.4232   15.7343 H   0  0  0  0  0  0  0  0  0  0  0  0
   20.2654   -2.8229   13.7510 H   0  0  0  0  0  0  0  0  0  0  0  0
   19.1840   -2.8163   12.3522 H   0  0  0  0  0  0  0  0  0  0  0  0
   19.7076   -1.2836   13.0840 H   0  0  0  0  0  0  0  0  0  0  0  0
   17.4379   -0.3344   15.2101 H   0  0  0  0  0  0  0  0  0  0  0  0
   16.0284    1.5056   14.5818 H   0  0  0  0  0  0  0  0  0  0  0  0
   15.1014    0.4148   13.5202 H   0  0  0  0  0  0  0  0  0  0  0  0
   15.2096    0.2699   16.5757 H   0  0  0  0  0  0  0  0  0  0  0  0
   13.8818    1.0001   15.6842 H   0  0  0  0  0  0  0  0  0  0  0  0
   14.6402   -1.8459   14.9538 H   0  0  0  0  0  0  0  0  0  0  0  0
   12.0121   -0.3349   15.1415 H   0  0  0  0  0  0  0  0  0  0  0  0
   12.7176   -1.1588   13.7391 H   0  0  0  0  0  0  0  0  0  0  0  0
   10.9934   -2.2935   15.6795 H   0  0  0  0  0  0  0  0  0  0  0  0
   11.9373   -3.2187   14.5117 H   0  0  0  0  0  0  0  0  0  0  0  0
   12.3615   -3.4015   17.2781 H   0  0  0  0  0  0  0  0  0  0  0  0
   13.5932   -3.7593   16.0755 H   0  0  0  0  0  0  0  0  0  0  0  0
   14.5119   -2.0488   17.3030 H   0  0  0  0  0  0  0  0  0  0  0  0
  1  2  1  0
  2  3  1  0
  3  4  2  3
  4  5  1  0
  4  6  1  0
  6  7  2  0
  6  8  1  0
  8  9  1  0
  9 10  1  0
 10 11  1  0
 11 12  1  0
 12 13  1  0
 13 14  1  0
 14 15  1  0
 15 11  1  0
  1 16  1  0
  1 17  1  0
  1 18  1  0
  2 19  1  0
  2 20  1  0
  3 21  1  0
  5 22  1  0
  5 23  1  0
  5 24  1  0
  8 25  1  0
  9 26  1  0
  9 27  1  0
 10 28  1  0
 10 29  1  0
 11 30  1  0
 12 31  1  0
 12 32  1  0
 13 33  1  0
 13 34  1  0
 14 35  1  0
 14 36  1  0
 15 37  1  0
M  END
>  <Energy>  (36) 
0.86923163426250838

>  <compound_id>  (36) 
77240

>  <target_id>  (36) 
1

>  <reference_id>  (36) 
97

>  <inspiration_ids>  (36) 
[124, 97]

>  <energy_score>  (36) 
-12.32916131354461

>  <distance_score>  (36) 
1.4509058593552067

>  <path>  (36) 
/opt/xchem-fragalysis-2/maxwin/BulkDock/SCRATCH/511024/C77240-P97/C77240-P97.minimised.mol

>  <scratch_subdir>  (36) 
/opt/xchem-fragalysis-2/maxwin/BulkDock/SCRATCH/511024/C77240-P97

>  <fragmenstein_runtime>  (36) 
4.124755859375

>  <fragmenstein_outcome>  (36) 
too moved

>  <fragmenstein_mode>  (36) 
expansion

>  <fragmenstein_error>  (36) 


$$$$
C77241-P124
     RDKit          3D

 29 29  0  0  0  0  0  0  0  0999 V2000
   21.2016    1.5692   16.4472 C   0  0  0  0  0  0  0  0  0  0  0  0
   20.2346    2.0685   16.9566 C   0  0  0  0  0  0  0  0  0  0  0  0
   19.0633    2.6662   17.5715 C   0  0  0  0  0  0  0  0  0  0  0  0
   19.1504    3.7360   18.0146 O   0  0  0  0  0  0  0  0  0  0  0  0
   17.8707    1.7132   17.5099 N   0  0  0  0  0  0  0  0  0  0  0  0
   16.5423    1.8330   18.0680 C   0  0  0  0  0  0  0  0  0  0  0  0
   15.6837    2.7519   17.2045 C   0  0  0  0  0  0  0  0  0  0  0  0
   15.9191    0.4325   18.3017 C   0  0  0  0  0  0  0  0  0  0  0  0
   16.1892   -0.5599   17.2474 N   0  0  0  0  0  0  0  0  0  0  0  0
   15.4981   -0.3191   15.9785 C   0  0  0  0  0  0  0  0  0  0  0  0
   15.2992   -1.6976   15.3523 C   0  0  0  0  0  0  0  0  0  0  0  0
   15.8774   -2.6790   16.3571 C   0  0  0  0  0  0  0  0  0  0  0  0
   15.8272   -1.9156   17.6650 C   0  0  0  0  0  0  0  0  0  0  0  0
   22.0641    1.1348   15.9979 H   0  0  0  0  0  0  0  0  0  0  0  0
   18.1693    0.8207   17.1242 H   0  0  0  0  0  0  0  0  0  0  0  0
   16.6582    2.3226   19.0430 H   0  0  0  0  0  0  0  0  0  0  0  0
   15.6273    2.4159   16.1659 H   0  0  0  0  0  0  0  0  0  0  0  0
   16.1070    3.7627   17.1859 H   0  0  0  0  0  0  0  0  0  0  0  0
   14.6665    2.8248   17.6019 H   0  0  0  0  0  0  0  0  0  0  0  0
   16.3795    0.0500   19.2236 H   0  0  0  0  0  0  0  0  0  0  0  0
   14.8474    0.5192   18.5122 H   0  0  0  0  0  0  0  0  0  0  0  0
   14.5232    0.1602   16.1144 H   0  0  0  0  0  0  0  0  0  0  0  0
   16.1044    0.3132   15.3224 H   0  0  0  0  0  0  0  0  0  0  0  0
   15.7960   -1.7872   14.3809 H   0  0  0  0  0  0  0  0  0  0  0  0
   14.2303   -1.8920   15.2057 H   0  0  0  0  0  0  0  0  0  0  0  0
   15.3123   -3.6150   16.3947 H   0  0  0  0  0  0  0  0  0  0  0  0
   16.9148   -2.9175   16.0921 H   0  0  0  0  0  0  0  0  0  0  0  0
   14.8147   -1.9528   18.0864 H   0  0  0  0  0  0  0  0  0  0  0  0
   16.5315   -2.3243   18.3961 H   0  0  0  0  0  0  0  0  0  0  0  0
  1  2  3  0
  2  3  1  0
  3  4  2  0
  3  5  1  0
  5  6  1  0
  6  7  1  0
  6  8  1  0
  8  9  1  0
  9 10  1  0
 10 11  1  0
 11 12  1  0
 12 13  1  0
 13  9  1  0
  1 14  1  0
  5 15  1  0
  6 16  1  0
  7 17  1  0
  7 18  1  0
  7 19  1  0
  8 20  1  0
  8 21  1  0
 10 22  1  0
 10 23  1  0
 11 24  1  0
 11 25  1  0
 12 26  1  0
 12 27  1  0
 13 28  1  0
 13 29  1  0
M  END
>  <Energy>  (37) 
11.348683015258

>  <compound_id>  (37) 
77241

>  <target_id>  (37) 
1

>  <reference_id>  (37) 
124

>  <inspiration_ids>  (37) 
[124, 97]

>  <energy_score>  (37) 
-6.502056204104804

>  <distance_score>  (37) 
3.930088371203967

>  <path>  (37) 
/opt/xchem-fragalysis-2/maxwin/BulkDock/SCRATCH/511024/C77241-P124/C77241-P124.minimised.mol

>  <scratch_subdir>  (37) 
/opt/xchem-fragalysis-2/maxwin/BulkDock/SCRATCH/511024/C77241-P124

>  <fragmenstein_runtime>  (37) 
1.1010398864746094

>  <fragmenstein_outcome>  (37) 
too moved

>  <fragmenstein_mode>  (37) 
expansion

>  <fragmenstein_error>  (37) 


$$$$
C77241-P97
     RDKit          3D

 29 29  0  0  0  0  0  0  0  0999 V2000
   21.1571   -0.6213   16.8361 C   0  0  0  0  0  0  0  0  0  0  0  0
   20.4171    0.1846   17.3329 C   0  0  0  0  0  0  0  0  0  0  0  0
   19.5176    1.1540   17.9314 C   0  0  0  0  0  0  0  0  0  0  0  0
   19.9691    2.0700   18.4840 O   0  0  0  0  0  0  0  0  0  0  0  0
   18.0604    0.7535   17.7030 N   0  0  0  0  0  0  0  0  0  0  0  0
   16.8341    1.4471   18.0254 C   0  0  0  0  0  0  0  0  0  0  0  0
   16.5397    2.5255   16.9836 C   0  0  0  0  0  0  0  0  0  0  0  0
   15.6387    0.4915   18.2868 C   0  0  0  0  0  0  0  0  0  0  0  0
   15.3223   -0.6063   17.3763 N   0  0  0  0  0  0  0  0  0  0  0  0
   15.3567   -0.3787   15.9447 C   0  0  0  0  0  0  0  0  0  0  0  0
   15.0559   -1.7702   15.4171 C   0  0  0  0  0  0  0  0  0  0  0  0
   15.8183   -2.6846   16.3659 C   0  0  0  0  0  0  0  0  0  0  0  0
   15.9746   -1.8822   17.6556 C   0  0  0  0  0  0  0  0  0  0  0  0
   21.8241   -1.3293   16.4019 H   0  0  0  0  0  0  0  0  0  0  0  0
   18.0246   -0.0644   17.1079 H   0  0  0  0  0  0  0  0  0  0  0  0
   17.0339    1.9781   18.9653 H   0  0  0  0  0  0  0  0  0  0  0  0
   15.6112    3.0554   17.2193 H   0  0  0  0  0  0  0  0  0  0  0  0
   16.4585    2.1220   15.9715 H   0  0  0  0  0  0  0  0  0  0  0  0
   17.3482    3.2655   16.9631 H   0  0  0  0  0  0  0  0  0  0  0  0
   15.7694    0.0660   19.2917 H   0  0  0  0  0  0  0  0  0  0  0  0
   14.7355    1.1098   18.3708 H   0  0  0  0  0  0  0  0  0  0  0  0
   14.6053    0.3450   15.6155 H   0  0  0  0  0  0  0  0  0  0  0  0
   16.3440   -0.0667   15.5902 H   0  0  0  0  0  0  0  0  0  0  0  0
   15.3671   -1.9018   14.3766 H   0  0  0  0  0  0  0  0  0  0  0  0
   13.9807   -1.9801   15.4802 H   0  0  0  0  0  0  0  0  0  0  0  0
   15.2836   -3.6265   16.5249 H   0  0  0  0  0  0  0  0  0  0  0  0
   16.8047   -2.9194   15.9490 H   0  0  0  0  0  0  0  0  0  0  0  0
   15.4806   -2.3900   18.4909 H   0  0  0  0  0  0  0  0  0  0  0  0
   17.0359   -1.7824   17.9031 H   0  0  0  0  0  0  0  0  0  0  0  0
  1  2  3  0
  2  3  1  0
  3  4  2  0
  3  5  1  0
  5  6  1  0
  6  7  1  0
  6  8  1  0
  8  9  1  0
  9 10  1  0
 10 11  1  0
 11 12  1  0
 12 13  1  0
 13  9  1  0
  1 14  1  0
  5 15  1  0
  6 16  1  0
  7 17  1  0
  7 18  1  0
  7 19  1  0
  8 20  1  0
  8 21  1  0
 10 22  1  0
 10 23  1  0
 11 24  1  0
 11 25  1  0
 12 26  1  0
 12 27  1  0
 13 28  1  0
 13 29  1  0
M  END
>  <Energy>  (38) 
17.827785467949838

>  <compound_id>  (38) 
77241

>  <target_id>  (38) 
1

>  <reference_id>  (38) 
97

>  <inspiration_ids>  (38) 
[124, 97]

>  <energy_score>  (38) 
-0.022953751413105294

>  <distance_score>  (38) 
3.531372391189252

>  <path>  (38) 
/opt/xchem-fragalysis-2/maxwin/BulkDock/SCRATCH/511024/C77241-P97/C77241-P97.minimised.mol

>  <scratch_subdir>  (38) 
/opt/xchem-fragalysis-2/maxwin/BulkDock/SCRATCH/511024/C77241-P97

>  <fragmenstein_runtime>  (38) 
1.012993335723877

>  <fragmenstein_outcome>  (38) 
too moved

>  <fragmenstein_mode>  (38) 
expansion

>  <fragmenstein_error>  (38) 


$$$$
C77242-P124
     RDKit          3D

 36 36  0  0  0  0  0  0  0  0999 V2000
   14.3093    2.3131   14.8208 C   0  0  0  0  0  0  0  0  0  0  0  0
   14.8984    0.8958   14.7141 C   0  0  0  0  0  0  0  0  0  0  0  0
   15.8827    0.8742   13.5138 C   0  0  0  0  0  0  0  0  0  0  0  0
   16.8048   -0.2288   13.5743 N   0  0  0  0  0  0  0  0  0  0  0  0
   16.8430   -1.5505   12.7728 C   0  0  0  0  0  0  0  0  0  0  0  0
   16.1797   -1.9159   11.8873 O   0  0  0  0  0  0  0  0  0  0  0  0
   17.9047   -2.4279   13.4337 C   0  0  0  0  0  0  0  0  0  0  0  0
   17.3054   -3.2392   14.5850 C   0  0  0  0  0  0  0  0  0  0  0  0
   17.1744   -2.4668   15.8913 C   0  0  0  0  0  0  0  0  0  0  0  0
   16.2816   -3.4231   17.0902 Cl  0  0  0  0  0  0  0  0  0  0  0  0
   13.7834   -0.0555   14.7464 N   0  0  0  0  0  0  0  0  0  0  0  0
   14.0453   -1.4032   15.2185 C   0  0  0  0  0  0  0  0  0  0  0  0
   12.7033   -2.0931   15.0510 C   0  0  0  0  0  0  0  0  0  0  0  0
   12.0509   -1.3553   13.9015 C   0  0  0  0  0  0  0  0  0  0  0  0
   13.0106   -0.2332   13.5233 C   0  0  0  0  0  0  0  0  0  0  0  0
   13.6572    2.4069   15.6953 H   0  0  0  0  0  0  0  0  0  0  0  0
   15.1074    3.0549   14.9376 H   0  0  0  0  0  0  0  0  0  0  0  0
   13.7311    2.5831   13.9306 H   0  0  0  0  0  0  0  0  0  0  0  0
   15.4837    0.7509   15.6326 H   0  0  0  0  0  0  0  0  0  0  0  0
   16.5026    1.7775   13.5219 H   0  0  0  0  0  0  0  0  0  0  0  0
   15.3583    0.8443   12.5543 H   0  0  0  0  0  0  0  0  0  0  0  0
   17.4722   -0.2737   14.3315 H   0  0  0  0  0  0  0  0  0  0  0  0
   18.7653   -1.8336   13.7585 H   0  0  0  0  0  0  0  0  0  0  0  0
   18.2749   -3.1109   12.6591 H   0  0  0  0  0  0  0  0  0  0  0  0
   16.3217   -3.6131   14.2904 H   0  0  0  0  0  0  0  0  0  0  0  0
   17.9405   -4.1169   14.7586 H   0  0  0  0  0  0  0  0  0  0  0  0
   16.6595   -1.5157   15.7940 H   0  0  0  0  0  0  0  0  0  0  0  0
   18.1656   -2.2606   16.3077 H   0  0  0  0  0  0  0  0  0  0  0  0
   14.3686   -1.4194   16.2606 H   0  0  0  0  0  0  0  0  0  0  0  0
   14.7791   -1.9071   14.5897 H   0  0  0  0  0  0  0  0  0  0  0  0
   12.8056   -3.1576   14.8494 H   0  0  0  0  0  0  0  0  0  0  0  0
   12.0751   -2.0260   15.9414 H   0  0  0  0  0  0  0  0  0  0  0  0
   11.0812   -0.9590   14.2126 H   0  0  0  0  0  0  0  0  0  0  0  0
   11.8837   -2.0426   13.0765 H   0  0  0  0  0  0  0  0  0  0  0  0
   12.4673    0.6665   13.2203 H   0  0  0  0  0  0  0  0  0  0  0  0
   13.6356   -0.5627   12.6856 H   0  0  0  0  0  0  0  0  0  0  0  0
  1  2  1  0
  2  3  1  0
  3  4  1  0
  4  5  1  0
  5  6  2  0
  5  7  1  0
  7  8  1  0
  8  9  1  0
  9 10  1  0
  2 11  1  0
 11 12  1  0
 12 13  1  0
 13 14  1  0
 14 15  1  0
 15 11  1  0
  1 16  1  0
  1 17  1  0
  1 18  1  0
  2 19  1  0
  3 20  1  0
  3 21  1  0
  4 22  1  0
  7 23  1  0
  7 24  1  0
  8 25  1  0
  8 26  1  0
  9 27  1  0
  9 28  1  0
 12 29  1  0
 12 30  1  0
 13 31  1  0
 13 32  1  0
 14 33  1  0
 14 34  1  0
 15 35  1  0
 15 36  1  0
M  END
>  <Energy>  (39) 
23.469383890069068

>  <compound_id>  (39) 
77242

>  <target_id>  (39) 
1

>  <reference_id>  (39) 
124

>  <inspiration_ids>  (39) 
[124, 97]

>  <energy_score>  (39) 
-5.932793291680639

>  <distance_score>  (39) 
1.6135490931036085

>  <path>  (39) 
/opt/xchem-fragalysis-2/maxwin/BulkDock/SCRATCH/511024/C77242-P124/C77242-P124.minimised.mol

>  <scratch_subdir>  (39) 
/opt/xchem-fragalysis-2/maxwin/BulkDock/SCRATCH/511024/C77242-P124

>  <fragmenstein_runtime>  (39) 
1.7410070896148682

>  <fragmenstein_outcome>  (39) 
too moved

>  <fragmenstein_mode>  (39) 
expansion

>  <fragmenstein_error>  (39) 


$$$$
C77242-P97
     RDKit          3D

 36 36  0  0  0  0  0  0  0  0999 V2000
   14.3982    2.6075   16.1335 C   0  0  0  0  0  0  0  0  0  0  0  0
   14.7891    1.2633   15.4926 C   0  0  0  0  0  0  0  0  0  0  0  0
   15.7495    1.5506   14.3062 C   0  0  0  0  0  0  0  0  0  0  0  0
   16.5640    0.4118   13.9768 N   0  0  0  0  0  0  0  0  0  0  0  0
   16.4195   -0.6328   12.8451 C   0  0  0  0  0  0  0  0  0  0  0  0
   15.6632   -0.6875   11.9600 O   0  0  0  0  0  0  0  0  0  0  0  0
   17.4375   -1.7302   13.1423 C   0  0  0  0  0  0  0  0  0  0  0  0
   16.8582   -2.7568   14.1181 C   0  0  0  0  0  0  0  0  0  0  0  0
   16.8178   -2.2892   15.5682 C   0  0  0  0  0  0  0  0  0  0  0  0
   16.0322   -3.4927   16.6044 Cl  0  0  0  0  0  0  0  0  0  0  0  0
   13.5388    0.5331   15.2532 N   0  0  0  0  0  0  0  0  0  0  0  0
   13.6021   -0.9245   15.2640 C   0  0  0  0  0  0  0  0  0  0  0  0
   12.2285   -1.3545   14.7609 C   0  0  0  0  0  0  0  0  0  0  0  0
   11.6399   -0.0966   14.1372 C   0  0  0  0  0  0  0  0  0  0  0  0
   12.8012    0.8705   14.0443 C   0  0  0  0  0  0  0  0  0  0  0  0
   13.7452    2.4568   17.0013 H   0  0  0  0  0  0  0  0  0  0  0  0
   15.2885    3.1386   16.4888 H   0  0  0  0  0  0  0  0  0  0  0  0
   13.8793    3.2618   15.4245 H   0  0  0  0  0  0  0  0  0  0  0  0
   15.3510    0.7264   16.2687 H   0  0  0  0  0  0  0  0  0  0  0  0
   16.4508    2.3488   14.5738 H   0  0  0  0  0  0  0  0  0  0  0  0
   15.2142    1.8744   13.4095 H   0  0  0  0  0  0  0  0  0  0  0  0
   17.3820    0.1971   14.5327 H   0  0  0  0  0  0  0  0  0  0  0  0
   18.3802   -1.3096   13.5075 H   0  0  0  0  0  0  0  0  0  0  0  0
   17.6658   -2.2208   12.1880 H   0  0  0  0  0  0  0  0  0  0  0  0
   17.4670   -3.6672   14.0615 H   0  0  0  0  0  0  0  0  0  0  0  0
   15.8481   -3.0200   13.7913 H   0  0  0  0  0  0  0  0  0  0  0  0
   16.2757   -1.3605   15.7115 H   0  0  0  0  0  0  0  0  0  0  0  0
   17.8341   -2.1417   15.9469 H   0  0  0  0  0  0  0  0  0  0  0  0
   13.7983   -1.3189   16.2648 H   0  0  0  0  0  0  0  0  0  0  0  0
   14.3548   -1.2994   14.5698 H   0  0  0  0  0  0  0  0  0  0  0  0
   12.3158   -2.1601   14.0239 H   0  0  0  0  0  0  0  0  0  0  0  0
   11.5907   -1.7090   15.5779 H   0  0  0  0  0  0  0  0  0  0  0  0
   10.8523    0.3055   14.7868 H   0  0  0  0  0  0  0  0  0  0  0  0
   11.2071   -0.2680   13.1549 H   0  0  0  0  0  0  0  0  0  0  0  0
   12.4497    1.9063   14.0303 H   0  0  0  0  0  0  0  0  0  0  0  0
   13.3735    0.6741   13.1307 H   0  0  0  0  0  0  0  0  0  0  0  0
  1  2  1  0
  2  3  1  0
  3  4  1  0
  4  5  1  0
  5  6  2  0
  5  7  1  0
  7  8  1  0
  8  9  1  0
  9 10  1  0
  2 11  1  0
 11 12  1  0
 12 13  1  0
 13 14  1  0
 14 15  1  0
 15 11  1  0
  1 16  1  0
  1 17  1  0
  1 18  1  0
  2 19  1  0
  3 20  1  0
  3 21  1  0
  4 22  1  0
  7 23  1  0
  7 24  1  0
  8 25  1  0
  8 26  1  0
  9 27  1  0
  9 28  1  0
 12 29  1  0
 12 30  1  0
 13 31  1  0
 13 32  1  0
 14 33  1  0
 14 34  1  0
 15 35  1  0
 15 36  1  0
M  END
>  <Energy>  (40) 
22.289796707216016

>  <compound_id>  (40) 
77242

>  <target_id>  (40) 
1

>  <reference_id>  (40) 
97

>  <inspiration_ids>  (40) 
[124, 97]

>  <energy_score>  (40) 
-7.112380474534206

>  <distance_score>  (40) 
1.7564250599979188

>  <path>  (40) 
/opt/xchem-fragalysis-2/maxwin/BulkDock/SCRATCH/511024/C77242-P97/C77242-P97.minimised.mol

>  <scratch_subdir>  (40) 
/opt/xchem-fragalysis-2/maxwin/BulkDock/SCRATCH/511024/C77242-P97

>  <fragmenstein_runtime>  (40) 
2.7215042114257812

>  <fragmenstein_outcome>  (40) 
too moved

>  <fragmenstein_mode>  (40) 
expansion

>  <fragmenstein_error>  (40) 


$$$$
C77243-P124
     RDKit          3D

 39 39  0  0  0  0  0  0  0  0999 V2000
   16.6292   -3.0708   17.8652 C   0  0  0  0  0  0  0  0  0  0  0  0
   17.1162   -3.4999   16.4861 C   0  0  0  0  0  0  0  0  0  0  0  0
   18.4846   -2.8912   16.2019 C   0  0  0  0  0  0  0  0  0  0  0  0
   18.8067   -2.6384   14.7220 C   0  0  0  0  0  0  0  0  0  0  0  0
   20.1796   -1.9737   14.5959 C   0  0  0  0  0  0  0  0  0  0  0  0
   17.8047   -1.8129   13.8822 C   0  0  0  0  0  0  0  0  0  0  0  0
   17.6759   -2.0333   12.7415 O   0  0  0  0  0  0  0  0  0  0  0  0
   17.1643   -0.7151   14.7724 N   0  0  0  0  0  0  0  0  0  0  0  0
   16.1660    0.2728   14.4635 C   0  0  0  0  0  0  0  0  0  0  0  0
   14.8923   -0.3531   13.9108 C   0  0  0  0  0  0  0  0  0  0  0  0
   13.8916   -0.8989   14.9368 C   0  0  0  0  0  0  0  0  0  0  0  0
   12.7674   -1.6665   14.2574 C   0  0  0  0  0  0  0  0  0  0  0  0
   12.2280   -2.5788   15.3373 C   0  0  0  0  0  0  0  0  0  0  0  0
   13.4184   -2.8783   16.2160 C   0  0  0  0  0  0  0  0  0  0  0  0
   14.4122   -1.8444   15.9306 N   0  0  0  0  0  0  0  0  0  0  0  0
   15.6612   -3.5286   18.0888 H   0  0  0  0  0  0  0  0  0  0  0  0
   17.3335   -3.3936   18.6395 H   0  0  0  0  0  0  0  0  0  0  0  0
   16.5268   -1.9838   17.9365 H   0  0  0  0  0  0  0  0  0  0  0  0
   16.3982   -3.2322   15.7139 H   0  0  0  0  0  0  0  0  0  0  0  0
   17.1940   -4.5935   16.4551 H   0  0  0  0  0  0  0  0  0  0  0  0
   19.2444   -3.5736   16.6086 H   0  0  0  0  0  0  0  0  0  0  0  0
   18.6218   -1.9650   16.7744 H   0  0  0  0  0  0  0  0  0  0  0  0
   18.8559   -3.6231   14.2361 H   0  0  0  0  0  0  0  0  0  0  0  0
   20.4553   -1.8405   13.5440 H   0  0  0  0  0  0  0  0  0  0  0  0
   20.1861   -0.9835   15.0648 H   0  0  0  0  0  0  0  0  0  0  0  0
   20.9553   -2.5829   15.0715 H   0  0  0  0  0  0  0  0  0  0  0  0
   17.4303   -0.8626   15.7317 H   0  0  0  0  0  0  0  0  0  0  0  0
   16.6060    0.9204   13.6980 H   0  0  0  0  0  0  0  0  0  0  0  0
   15.9747    0.8717   15.3587 H   0  0  0  0  0  0  0  0  0  0  0  0
   15.1508   -1.1402   13.1914 H   0  0  0  0  0  0  0  0  0  0  0  0
   14.3672    0.4183   13.3310 H   0  0  0  0  0  0  0  0  0  0  0  0
   13.4776   -0.0365   15.4623 H   0  0  0  0  0  0  0  0  0  0  0  0
   13.1446   -2.2691   13.4236 H   0  0  0  0  0  0  0  0  0  0  0  0
   11.9916   -1.0035   13.8620 H   0  0  0  0  0  0  0  0  0  0  0  0
   11.7720   -3.4789   14.9187 H   0  0  0  0  0  0  0  0  0  0  0  0
   11.4479   -2.0668   15.9049 H   0  0  0  0  0  0  0  0  0  0  0  0
   13.8449   -3.8587   15.9903 H   0  0  0  0  0  0  0  0  0  0  0  0
   13.1415   -2.8943   17.2727 H   0  0  0  0  0  0  0  0  0  0  0  0
   14.6905   -1.3568   16.7772 H   0  0  0  0  0  0  0  0  0  0  0  0
  1  2  1  0
  2  3  1  0
  3  4  1  0
  4  5  1  0
  4  6  1  0
  6  7  2  0
  6  8  1  0
  8  9  1  0
  9 10  1  0
 10 11  1  0
 11 12  1  0
 12 13  1  0
 13 14  1  0
 14 15  1  0
 15 11  1  0
  1 16  1  0
  1 17  1  0
  1 18  1  0
  2 19  1  0
  2 20  1  0
  3 21  1  0
  3 22  1  0
  4 23  1  0
  5 24  1  0
  5 25  1  0
  5 26  1  0
  8 27  1  0
  9 28  1  0
  9 29  1  0
 10 30  1  0
 10 31  1  0
 11 32  1  0
 12 33  1  0
 12 34  1  0
 13 35  1  0
 13 36  1  0
 14 37  1  0
 14 38  1  0
 15 39  1  0
M  END
>  <Energy>  (41) 
13.101718569605536

>  <compound_id>  (41) 
77243

>  <target_id>  (41) 
1

>  <reference_id>  (41) 
124

>  <inspiration_ids>  (41) 
[124, 97]

>  <energy_score>  (41) 
6.565446776078211

>  <distance_score>  (41) 
1.8227415083114729

>  <path>  (41) 
/opt/xchem-fragalysis-2/maxwin/BulkDock/SCRATCH/511024/C77243-P124/C77243-P124.minimised.mol

>  <scratch_subdir>  (41) 
/opt/xchem-fragalysis-2/maxwin/BulkDock/SCRATCH/511024/C77243-P124

>  <fragmenstein_runtime>  (41) 
3.6805498600006104

>  <fragmenstein_outcome>  (41) 
too moved

>  <fragmenstein_mode>  (41) 
expansion

>  <fragmenstein_error>  (41) 


$$$$
C77243-P97
     RDKit          3D

 39 39  0  0  0  0  0  0  0  0999 V2000
   16.7107   -2.9237   17.8036 C   0  0  0  0  0  0  0  0  0  0  0  0
   16.8610   -3.4719   16.3887 C   0  0  0  0  0  0  0  0  0  0  0  0
   18.1771   -3.0192   15.7589 C   0  0  0  0  0  0  0  0  0  0  0  0
   18.0644   -2.4732   14.3244 C   0  0  0  0  0  0  0  0  0  0  0  0
   19.3933   -1.8628   13.8797 C   0  0  0  0  0  0  0  0  0  0  0  0
   16.9369   -1.4569   14.0484 C   0  0  0  0  0  0  0  0  0  0  0  0
   16.3343   -1.4876   13.0472 O   0  0  0  0  0  0  0  0  0  0  0  0
   16.8392   -0.4805   15.2515 N   0  0  0  0  0  0  0  0  0  0  0  0
   15.9189    0.5962   15.5092 C   0  0  0  0  0  0  0  0  0  0  0  0
   14.5337    0.3857   14.9147 C   0  0  0  0  0  0  0  0  0  0  0  0
   13.5707   -0.5811   15.6342 C   0  0  0  0  0  0  0  0  0  0  0  0
   12.7686   -1.3995   14.6313 C   0  0  0  0  0  0  0  0  0  0  0  0
   12.1653   -2.4806   15.4958 C   0  0  0  0  0  0  0  0  0  0  0  0
   13.2506   -2.7859   16.5017 C   0  0  0  0  0  0  0  0  0  0  0  0
   14.1144   -1.6014   16.5417 N   0  0  0  0  0  0  0  0  0  0  0  0
   15.7854   -3.2911   18.2580 H   0  0  0  0  0  0  0  0  0  0  0  0
   17.5418   -3.2552   18.4351 H   0  0  0  0  0  0  0  0  0  0  0  0
   16.6928   -1.8305   17.8164 H   0  0  0  0  0  0  0  0  0  0  0  0
   16.0112   -3.1883   15.7696 H   0  0  0  0  0  0  0  0  0  0  0  0
   16.8452   -4.5678   16.4346 H   0  0  0  0  0  0  0  0  0  0  0  0
   18.8614   -3.8787   15.7421 H   0  0  0  0  0  0  0  0  0  0  0  0
   18.6784   -2.2836   16.4008 H   0  0  0  0  0  0  0  0  0  0  0  0
   17.8498   -3.3334   13.6750 H   0  0  0  0  0  0  0  0  0  0  0  0
   20.2026   -2.5971   13.9484 H   0  0  0  0  0  0  0  0  0  0  0  0
   19.3364   -1.5195   12.8409 H   0  0  0  0  0  0  0  0  0  0  0  0
   19.6628   -0.9985   14.4964 H   0  0  0  0  0  0  0  0  0  0  0  0
   17.5660   -0.6927   15.9178 H   0  0  0  0  0  0  0  0  0  0  0  0
   16.3709    1.4908   15.0679 H   0  0  0  0  0  0  0  0  0  0  0  0
   15.8696    0.7491   16.5920 H   0  0  0  0  0  0  0  0  0  0  0  0
   14.6267    0.1187   13.8564 H   0  0  0  0  0  0  0  0  0  0  0  0
   14.0375    1.3666   14.9086 H   0  0  0  0  0  0  0  0  0  0  0  0
   12.8681    0.0260   16.2222 H   0  0  0  0  0  0  0  0  0  0  0  0
   13.4157   -1.8514   13.8691 H   0  0  0  0  0  0  0  0  0  0  0  0
   12.0018   -0.8059   14.1240 H   0  0  0  0  0  0  0  0  0  0  0  0
   11.8605   -3.3544   14.9153 H   0  0  0  0  0  0  0  0  0  0  0  0
   11.2757   -2.0854   15.9957 H   0  0  0  0  0  0  0  0  0  0  0  0
   13.8362   -3.6511   16.1795 H   0  0  0  0  0  0  0  0  0  0  0  0
   12.8389   -3.0300   17.4826 H   0  0  0  0  0  0  0  0  0  0  0  0
   14.2031   -1.2440   17.4890 H   0  0  0  0  0  0  0  0  0  0  0  0
  1  2  1  0
  2  3  1  0
  3  4  1  0
  4  5  1  0
  4  6  1  0
  6  7  2  0
  6  8  1  0
  8  9  1  0
  9 10  1  0
 10 11  1  0
 11 12  1  0
 12 13  1  0
 13 14  1  0
 14 15  1  0
 15 11  1  0
  1 16  1  0
  1 17  1  0
  1 18  1  0
  2 19  1  0
  2 20  1  0
  3 21  1  0
  3 22  1  0
  4 23  1  0
  5 24  1  0
  5 25  1  0
  5 26  1  0
  8 27  1  0
  9 28  1  0
  9 29  1  0
 10 30  1  0
 10 31  1  0
 11 32  1  0
 12 33  1  0
 12 34  1  0
 13 35  1  0
 13 36  1  0
 14 37  1  0
 14 38  1  0
 15 39  1  0
M  END
>  <Energy>  (42) 
17.817370562073236

>  <compound_id>  (42) 
77243

>  <target_id>  (42) 
1

>  <reference_id>  (42) 
97

>  <inspiration_ids>  (42) 
[124, 97]

>  <energy_score>  (42) 
11.281098768546032

>  <distance_score>  (42) 
1.6502894845567087

>  <path>  (42) 
/opt/xchem-fragalysis-2/maxwin/BulkDock/SCRATCH/511024/C77243-P97/C77243-P97.minimised.mol

>  <scratch_subdir>  (42) 
/opt/xchem-fragalysis-2/maxwin/BulkDock/SCRATCH/511024/C77243-P97

>  <fragmenstein_runtime>  (42) 
3.9098012447357178

>  <fragmenstein_outcome>  (42) 
too moved

>  <fragmenstein_mode>  (42) 
expansion

>  <fragmenstein_error>  (42) 


$$$$
C77244-P124
     RDKit          3D

 54 54  0  0  0  0  0  0  0  0999 V2000
   15.5321   -0.5592   20.1052 C   0  0  0  0  0  0  0  0  0  0  0  0
   16.3810    0.1226   19.0466 C   0  0  0  0  0  0  0  0  0  0  0  0
   16.4144   -0.6292   17.7160 C   0  0  0  0  0  0  0  0  0  0  0  0
   17.1878   -1.9518   17.7252 C   0  0  0  0  0  0  0  0  0  0  0  0
   16.9274   -2.9366   16.5570 C   0  0  0  0  0  0  0  0  0  0  0  0
   17.7518   -2.8940   15.2308 C   0  0  0  0  0  0  0  0  0  0  0  0
   17.0130   -2.1675   14.0855 C   0  0  0  0  0  0  0  0  0  0  0  0
   16.6149   -2.7404   13.1571 O   0  0  0  0  0  0  0  0  0  0  0  0
   16.8572   -0.6974   14.4872 N   0  0  0  0  0  0  0  0  0  0  0  0
   16.0973    0.3622   13.8793 C   0  0  0  0  0  0  0  0  0  0  0  0
   14.8492    0.7396   14.7172 C   0  0  0  0  0  0  0  0  0  0  0  0
   14.4063    2.1598   14.3223 C   0  0  0  0  0  0  0  0  0  0  0  0
   13.6923   -0.1667   14.7257 N   0  0  0  0  0  0  0  0  0  0  0  0
   13.8716   -1.5425   15.1637 C   0  0  0  0  0  0  0  0  0  0  0  0
   12.4929   -2.1434   14.9867 C   0  0  0  0  0  0  0  0  0  0  0  0
   11.9152   -1.3534   13.8387 C   0  0  0  0  0  0  0  0  0  0  0  0
   12.9439   -0.2879   13.4837 C   0  0  0  0  0  0  0  0  0  0  0  0
   19.2356   -2.4976   15.3432 C   0  0  0  0  0  0  0  0  0  0  0  0
   19.9319   -2.4548   13.9749 C   0  0  0  0  0  0  0  0  0  0  0  0
   20.0077   -3.4738   16.2425 C   0  0  0  0  0  0  0  0  0  0  0  0
   15.9845   -1.4975   20.4389 H   0  0  0  0  0  0  0  0  0  0  0  0
   15.4303    0.0883   20.9820 H   0  0  0  0  0  0  0  0  0  0  0  0
   14.5307   -0.7789   19.7267 H   0  0  0  0  0  0  0  0  0  0  0  0
   17.4002    0.2625   19.4247 H   0  0  0  0  0  0  0  0  0  0  0  0
   15.9675    1.1229   18.8680 H   0  0  0  0  0  0  0  0  0  0  0  0
   16.8803    0.0550   17.0082 H   0  0  0  0  0  0  0  0  0  0  0  0
   15.3850   -0.7932   17.4167 H   0  0  0  0  0  0  0  0  0  0  0  0
   16.9089   -2.4939   18.6372 H   0  0  0  0  0  0  0  0  0  0  0  0
   18.2560   -1.7404   17.8304 H   0  0  0  0  0  0  0  0  0  0  0  0
   15.8594   -2.9719   16.3333 H   0  0  0  0  0  0  0  0  0  0  0  0
   17.1394   -3.9297   16.9826 H   0  0  0  0  0  0  0  0  0  0  0  0
   17.7514   -3.9414   14.8832 H   0  0  0  0  0  0  0  0  0  0  0  0
   17.4002   -0.5163   15.3155 H   0  0  0  0  0  0  0  0  0  0  0  0
   15.8164    0.0542   12.8675 H   0  0  0  0  0  0  0  0  0  0  0  0
   16.7785    1.2158   13.7972 H   0  0  0  0  0  0  0  0  0  0  0  0
   15.1659    0.8317   15.7606 H   0  0  0  0  0  0  0  0  0  0  0  0
   14.1545    2.2292   13.2588 H   0  0  0  0  0  0  0  0  0  0  0  0
   13.5377    2.4815   14.9070 H   0  0  0  0  0  0  0  0  0  0  0  0
   15.2093    2.8793   14.5192 H   0  0  0  0  0  0  0  0  0  0  0  0
   14.1637   -1.6404   16.2019 H   0  0  0  0  0  0  0  0  0  0  0  0
   14.5640   -2.0900   14.5285 H   0  0  0  0  0  0  0  0  0  0  0  0
   11.8683   -2.0312   15.8763 H   0  0  0  0  0  0  0  0  0  0  0  0
   12.5267   -3.2121   14.7734 H   0  0  0  0  0  0  0  0  0  0  0  0
   11.7290   -2.0284   13.0110 H   0  0  0  0  0  0  0  0  0  0  0  0
   10.9693   -0.8974   14.1399 H   0  0  0  0  0  0  0  0  0  0  0  0
   12.4453    0.6368   13.1786 H   0  0  0  0  0  0  0  0  0  0  0  0
   13.5777   -0.6331   12.6583 H   0  0  0  0  0  0  0  0  0  0  0  0
   19.3184   -1.4954   15.7798 H   0  0  0  0  0  0  0  0  0  0  0  0
   20.9985   -2.2320   14.0886 H   0  0  0  0  0  0  0  0  0  0  0  0
   19.8415   -3.4138   13.4532 H   0  0  0  0  0  0  0  0  0  0  0  0
   19.5091   -1.6747   13.3340 H   0  0  0  0  0  0  0  0  0  0  0  0
   19.9853   -4.4897   15.8327 H   0  0  0  0  0  0  0  0  0  0  0  0
   21.0570   -3.1710   16.3299 H   0  0  0  0  0  0  0  0  0  0  0  0
   19.5970   -3.5127   17.2548 H   0  0  0  0  0  0  0  0  0  0  0  0
  1  2  1  0
  2  3  1  0
  3  4  1  0
  4  5  1  0
  5  6  1  0
  6  7  1  0
  7  8  2  0
  7  9  1  0
  9 10  1  0
 10 11  1  0
 11 12  1  0
 11 13  1  0
 13 14  1  0
 14 15  1  0
 15 16  1  0
 16 17  1  0
  6 18  1  0
 18 19  1  0
 18 20  1  0
 17 13  1  0
  1 21  1  0
  1 22  1  0
  1 23  1  0
  2 24  1  0
  2 25  1  0
  3 26  1  0
  3 27  1  0
  4 28  1  0
  4 29  1  0
  5 30  1  0
  5 31  1  0
  6 32  1  0
  9 33  1  0
 10 34  1  0
 10 35  1  0
 11 36  1  0
 12 37  1  0
 12 38  1  0
 12 39  1  0
 14 40  1  0
 14 41  1  0
 15 42  1  0
 15 43  1  0
 16 44  1  0
 16 45  1  0
 17 46  1  0
 17 47  1  0
 18 48  1  0
 19 49  1  0
 19 50  1  0
 19 51  1  0
 20 52  1  0
 20 53  1  0
 20 54  1  0
M  END
>  <Energy>  (43) 
46.731150012107868

>  <compound_id>  (43) 
77244

>  <target_id>  (43) 
1

>  <reference_id>  (43) 
124

>  <inspiration_ids>  (43) 
[124, 97]

>  <energy_score>  (43) 
-27.922935933572653

>  <distance_score>  (43) 
1.2648100944693994

>  <path>  (43) 
/opt/xchem-fragalysis-2/maxwin/BulkDock/SCRATCH/511024/C77244-P124/C77244-P124.minimised.mol

>  <scratch_subdir>  (43) 
/opt/xchem-fragalysis-2/maxwin/BulkDock/SCRATCH/511024/C77244-P124

>  <fragmenstein_runtime>  (43) 
10.60661244392395

>  <fragmenstein_outcome>  (43) 
too moved

>  <fragmenstein_mode>  (43) 
expansion

>  <fragmenstein_error>  (43) 


$$$$
C77244-P97
     RDKit          3D

 54 54  0  0  0  0  0  0  0  0999 V2000
   15.8086   -0.4048   20.3027 C   0  0  0  0  0  0  0  0  0  0  0  0
   16.1300    0.1342   18.9206 C   0  0  0  0  0  0  0  0  0  0  0  0
   15.8139   -0.8703   17.8203 C   0  0  0  0  0  0  0  0  0  0  0  0
   16.8484   -1.9755   17.6145 C   0  0  0  0  0  0  0  0  0  0  0  0
   16.3986   -3.0148   16.5677 C   0  0  0  0  0  0  0  0  0  0  0  0
   17.0133   -2.9872   15.1443 C   0  0  0  0  0  0  0  0  0  0  0  0
   16.2724   -2.0224   14.1858 C   0  0  0  0  0  0  0  0  0  0  0  0
   15.6116   -2.4299   13.3172 O   0  0  0  0  0  0  0  0  0  0  0  0
   16.6182   -0.5724   14.5830 N   0  0  0  0  0  0  0  0  0  0  0  0
   16.1466    0.6812   14.0517 C   0  0  0  0  0  0  0  0  0  0  0  0
   14.9059    1.2819   14.7685 C   0  0  0  0  0  0  0  0  0  0  0  0
   14.6829    2.7029   14.2177 C   0  0  0  0  0  0  0  0  0  0  0  0
   13.6075    0.5927   14.7104 N   0  0  0  0  0  0  0  0  0  0  0  0
   13.4121   -0.4944   15.6602 C   0  0  0  0  0  0  0  0  0  0  0  0
   12.0920   -1.1026   15.2405 C   0  0  0  0  0  0  0  0  0  0  0  0
   12.0058   -0.8007   13.7583 C   0  0  0  0  0  0  0  0  0  0  0  0
   13.2203    0.0469   13.4171 C   0  0  0  0  0  0  0  0  0  0  0  0
   18.5580   -2.8860   15.0469 C   0  0  0  0  0  0  0  0  0  0  0  0
   19.0381   -3.0367   13.5960 C   0  0  0  0  0  0  0  0  0  0  0  0
   19.2544   -3.9484   15.9063 C   0  0  0  0  0  0  0  0  0  0  0  0
   16.4177   -1.2819   20.5405 H   0  0  0  0  0  0  0  0  0  0  0  0
   16.0097    0.3585   21.0612 H   0  0  0  0  0  0  0  0  0  0  0  0
   14.7538   -0.6872   20.3812 H   0  0  0  0  0  0  0  0  0  0  0  0
   17.1814    0.4385   18.8704 H   0  0  0  0  0  0  0  0  0  0  0  0
   15.5272    1.0360   18.7582 H   0  0  0  0  0  0  0  0  0  0  0  0
   15.7501   -0.3027   16.9008 H   0  0  0  0  0  0  0  0  0  0  0  0
   14.8313   -1.3159   18.0114 H   0  0  0  0  0  0  0  0  0  0  0  0
   16.9816   -2.4999   18.5687 H   0  0  0  0  0  0  0  0  0  0  0  0
   17.8213   -1.5428   17.3654 H   0  0  0  0  0  0  0  0  0  0  0  0
   15.3048   -3.0206   16.4882 H   0  0  0  0  0  0  0  0  0  0  0  0
   16.6459   -3.9998   16.9890 H   0  0  0  0  0  0  0  0  0  0  0  0
   16.7652   -3.9803   14.7360 H   0  0  0  0  0  0  0  0  0  0  0  0
   17.2863   -0.5804   15.3410 H   0  0  0  0  0  0  0  0  0  0  0  0
   15.9447    0.5363   12.9853 H   0  0  0  0  0  0  0  0  0  0  0  0
   16.9895    1.3773   14.1306 H   0  0  0  0  0  0  0  0  0  0  0  0
   15.1612    1.4274   15.8249 H   0  0  0  0  0  0  0  0  0  0  0  0
   14.4681    2.6946   13.1435 H   0  0  0  0  0  0  0  0  0  0  0  0
   13.8495    3.1984   14.7293 H   0  0  0  0  0  0  0  0  0  0  0  0
   15.5732    3.3219   14.3758 H   0  0  0  0  0  0  0  0  0  0  0  0
   13.3534   -0.1278   16.6881 H   0  0  0  0  0  0  0  0  0  0  0  0
   14.1853   -1.2558   15.5817 H   0  0  0  0  0  0  0  0  0  0  0  0
   11.2560   -0.6259   15.7655 H   0  0  0  0  0  0  0  0  0  0  0  0
   12.0499   -2.1766   15.4480 H   0  0  0  0  0  0  0  0  0  0  0  0
   11.9993   -1.7303   13.1835 H   0  0  0  0  0  0  0  0  0  0  0  0
   11.0920   -0.2349   13.5517 H   0  0  0  0  0  0  0  0  0  0  0  0
   12.9621    0.8284   12.6955 H   0  0  0  0  0  0  0  0  0  0  0  0
   13.9867   -0.5883   12.9686 H   0  0  0  0  0  0  0  0  0  0  0  0
   18.8967   -1.9050   15.3973 H   0  0  0  0  0  0  0  0  0  0  0  0
   20.1315   -2.9927   13.5427 H   0  0  0  0  0  0  0  0  0  0  0  0
   18.7189   -3.9938   13.1695 H   0  0  0  0  0  0  0  0  0  0  0  0
   18.6520   -2.2337   12.9605 H   0  0  0  0  0  0  0  0  0  0  0  0
   18.9331   -4.9574   15.6264 H   0  0  0  0  0  0  0  0  0  0  0  0
   20.3418   -3.8954   15.7840 H   0  0  0  0  0  0  0  0  0  0  0  0
   19.0441   -3.8056   16.9702 H   0  0  0  0  0  0  0  0  0  0  0  0
  1  2  1  0
  2  3  1  0
  3  4  1  0
  4  5  1  0
  5  6  1  0
  6  7  1  0
  7  8  2  0
  7  9  1  0
  9 10  1  0
 10 11  1  0
 11 12  1  0
 11 13  1  0
 13 14  1  0
 14 15  1  0
 15 16  1  0
 16 17  1  0
  6 18  1  0
 18 19  1  0
 18 20  1  0
 17 13  1  0
  1 21  1  0
  1 22  1  0
  1 23  1  0
  2 24  1  0
  2 25  1  0
  3 26  1  0
  3 27  1  0
  4 28  1  0
  4 29  1  0
  5 30  1  0
  5 31  1  0
  6 32  1  0
  9 33  1  0
 10 34  1  0
 10 35  1  0
 11 36  1  0
 12 37  1  0
 12 38  1  0
 12 39  1  0
 14 40  1  0
 14 41  1  0
 15 42  1  0
 15 43  1  0
 16 44  1  0
 16 45  1  0
 17 46  1  0
 17 47  1  0
 18 48  1  0
 19 49  1  0
 19 50  1  0
 19 51  1  0
 20 52  1  0
 20 53  1  0
 20 54  1  0
M  END
>  <Energy>  (44) 
41.247112072452595

>  <compound_id>  (44) 
77244

>  <target_id>  (44) 
1

>  <reference_id>  (44) 
97

>  <inspiration_ids>  (44) 
[124, 97]

>  <energy_score>  (44) 
-33.406973873228594

>  <distance_score>  (44) 
1.2382867065097511

>  <path>  (44) 
/opt/xchem-fragalysis-2/maxwin/BulkDock/SCRATCH/511024/C77244-P97/C77244-P97.minimised.mol

>  <scratch_subdir>  (44) 
/opt/xchem-fragalysis-2/maxwin/BulkDock/SCRATCH/511024/C77244-P97

>  <fragmenstein_runtime>  (44) 
7.037113189697266

>  <fragmenstein_outcome>  (44) 
too moved

>  <fragmenstein_mode>  (44) 
expansion

>  <fragmenstein_error>  (44) 


$$$$
C53436-P124
     RDKit          3D

 28 30  0  0  0  0  0  0  0  0999 V2000
   12.3795   -3.8219   16.2684 C   0  0  0  0  0  0  0  0  0  0  0  0
   11.5274   -3.2017   15.3580 C   0  0  0  0  0  0  0  0  0  0  0  0
   11.9033   -2.0467   14.6769 C   0  0  0  0  0  0  0  0  0  0  0  0
   13.1624   -1.5257   14.9621 C   0  0  0  0  0  0  0  0  0  0  0  0
   13.7527   -0.3413   14.5696 N   0  0  0  0  0  0  0  0  0  0  0  0
   14.9315   -0.1681   15.2653 C   0  0  0  0  0  0  0  0  0  0  0  0
   15.6969    1.1280   15.3391 C   0  0  0  0  0  0  0  0  0  0  0  0
   15.0239    2.1203   16.2818 C   0  0  0  0  0  0  0  0  0  0  0  0
   15.4696    1.6621   17.6697 C   0  0  0  0  0  0  0  0  0  0  0  0
   16.8336    1.1544   17.4997 N   0  0  0  0  0  0  0  0  0  0  0  0
   17.0543    0.9808   16.0481 C   0  0  0  0  0  0  0  0  0  0  0  0
   15.1933   -1.3564   15.9136 C   0  0  0  0  0  0  0  0  0  0  0  0
   14.0420   -2.1552   15.8369 C   0  0  0  0  0  0  0  0  0  0  0  0
   13.6556   -3.3246   16.5012 C   0  0  0  0  0  0  0  0  0  0  0  0
   12.0567   -4.7278   16.7689 H   0  0  0  0  0  0  0  0  0  0  0  0
   10.5540   -3.6329   15.1511 H   0  0  0  0  0  0  0  0  0  0  0  0
   11.2308   -1.5493   13.9897 H   0  0  0  0  0  0  0  0  0  0  0  0
   13.2872    0.3656   14.0148 H   0  0  0  0  0  0  0  0  0  0  0  0
   15.8150    1.5426   14.3321 H   0  0  0  0  0  0  0  0  0  0  0  0
   13.9384    2.1635   16.1713 H   0  0  0  0  0  0  0  0  0  0  0  0
   15.4135    3.1290   16.0900 H   0  0  0  0  0  0  0  0  0  0  0  0
   15.4404    2.4820   18.3932 H   0  0  0  0  0  0  0  0  0  0  0  0
   14.8319    0.8566   18.0454 H   0  0  0  0  0  0  0  0  0  0  0  0
   16.9124    0.2509   17.9652 H   0  0  0  0  0  0  0  0  0  0  0  0
   17.7149    1.7949   15.7241 H   0  0  0  0  0  0  0  0  0  0  0  0
   17.5791    0.0462   15.8251 H   0  0  0  0  0  0  0  0  0  0  0  0
   16.0537   -1.5700   16.5335 H   0  0  0  0  0  0  0  0  0  0  0  0
   14.3222   -3.8159   17.2011 H   0  0  0  0  0  0  0  0  0  0  0  0
  1  2  2  0
  2  3  1  0
  3  4  2  0
  4  5  1  0
  5  6  1  0
  6  7  1  0
  7  8  1  0
  8  9  1  0
  9 10  1  0
 10 11  1  0
  6 12  2  0
 12 13  1  0
 13 14  2  0
 14  1  1  0
 13  4  1  0
 11  7  1  0
  1 15  1  0
  2 16  1  0
  3 17  1  0
  5 18  1  0
  7 19  1  0
  8 20  1  0
  8 21  1  0
  9 22  1  0
  9 23  1  0
 10 24  1  0
 11 25  1  0
 11 26  1  0
 12 27  1  0
 14 28  1  0
M  END
>  <Energy>  (45) 
39.701159156194706

>  <compound_id>  (45) 
53436

>  <target_id>  (45) 
1

>  <reference_id>  (45) 
124

>  <inspiration_ids>  (45) 
[124, 97]

>  <energy_score>  (45) 
-9.170095933041111

>  <distance_score>  (45) 
2.0796567120284113

>  <path>  (45) 
/opt/xchem-fragalysis-2/maxwin/BulkDock/SCRATCH/511024/C53436-P124/C53436-P124.minimised.mol

>  <scratch_subdir>  (45) 
/opt/xchem-fragalysis-2/maxwin/BulkDock/SCRATCH/511024/C53436-P124

>  <fragmenstein_runtime>  (45) 
3.251918315887451

>  <fragmenstein_outcome>  (45) 
too moved

>  <fragmenstein_mode>  (45) 
expansion

>  <fragmenstein_error>  (45) 


$$$$
C53436-P97
     RDKit          3D

 28 30  0  0  0  0  0  0  0  0999 V2000
   12.5108   -3.8892   16.3689 C   0  0  0  0  0  0  0  0  0  0  0  0
   11.5427   -3.3056   15.5545 C   0  0  0  0  0  0  0  0  0  0  0  0
   11.6847   -2.0193   15.0447 C   0  0  0  0  0  0  0  0  0  0  0  0
   12.8589   -1.3498   15.3602 C   0  0  0  0  0  0  0  0  0  0  0  0
   13.2659   -0.0696   15.0592 N   0  0  0  0  0  0  0  0  0  0  0  0
   14.4268    0.2038   15.7450 C   0  0  0  0  0  0  0  0  0  0  0  0
   14.9566    1.5885   15.9900 C   0  0  0  0  0  0  0  0  0  0  0  0
   14.2473    2.2196   17.1887 C   0  0  0  0  0  0  0  0  0  0  0  0
   14.9932    1.6460   18.3887 C   0  0  0  0  0  0  0  0  0  0  0  0
   16.3898    1.5418   17.9623 N   0  0  0  0  0  0  0  0  0  0  0  0
   16.4110    1.5872   16.4869 C   0  0  0  0  0  0  0  0  0  0  0  0
   14.8987   -0.9944   16.2357 C   0  0  0  0  0  0  0  0  0  0  0  0
   13.8679   -1.9386   16.1156 C   0  0  0  0  0  0  0  0  0  0  0  0
   13.6990   -3.2257   16.6376 C   0  0  0  0  0  0  0  0  0  0  0  0
   12.3510   -4.8888   16.7607 H   0  0  0  0  0  0  0  0  0  0  0  0
   10.6543   -3.8658   15.2891 H   0  0  0  0  0  0  0  0  0  0  0  0
   10.9150   -1.5637   14.4369 H   0  0  0  0  0  0  0  0  0  0  0  0
   12.7068    0.6038   14.5535 H   0  0  0  0  0  0  0  0  0  0  0  0
   14.8413    2.1963   15.0860 H   0  0  0  0  0  0  0  0  0  0  0  0
   13.1746    2.0064   17.2312 H   0  0  0  0  0  0  0  0  0  0  0  0
   14.3758    3.3094   17.1611 H   0  0  0  0  0  0  0  0  0  0  0  0
   14.8957    2.2871   19.2696 H   0  0  0  0  0  0  0  0  0  0  0  0
   14.6093    0.6540   18.6489 H   0  0  0  0  0  0  0  0  0  0  0  0
   16.7807    0.6591   18.2893 H   0  0  0  0  0  0  0  0  0  0  0  0
   16.8855    2.5343   16.2024 H   0  0  0  0  0  0  0  0  0  0  0  0
   17.0273    0.7869   16.0639 H   0  0  0  0  0  0  0  0  0  0  0  0
   15.8103   -1.1402   16.8002 H   0  0  0  0  0  0  0  0  0  0  0  0
   14.4666   -3.6894   17.2483 H   0  0  0  0  0  0  0  0  0  0  0  0
  1  2  2  0
  2  3  1  0
  3  4  2  0
  4  5  1  0
  5  6  1  0
  6  7  1  0
  7  8  1  0
  8  9  1  0
  9 10  1  0
 10 11  1  0
  6 12  2  0
 12 13  1  0
 13 14  2  0
 14  1  1  0
 13  4  1  0
 11  7  1  0
  1 15  1  0
  2 16  1  0
  3 17  1  0
  5 18  1  0
  7 19  1  0
  8 20  1  0
  8 21  1  0
  9 22  1  0
  9 23  1  0
 10 24  1  0
 11 25  1  0
 11 26  1  0
 12 27  1  0
 14 28  1  0
M  END
>  <Energy>  (46) 
39.780093666568931

>  <compound_id>  (46) 
53436

>  <target_id>  (46) 
1

>  <reference_id>  (46) 
97

>  <inspiration_ids>  (46) 
[124, 97]

>  <energy_score>  (46) 
-9.091161422667227

>  <distance_score>  (46) 
2.002489611395329

>  <path>  (46) 
/opt/xchem-fragalysis-2/maxwin/BulkDock/SCRATCH/511024/C53436-P97/C53436-P97.minimised.mol

>  <scratch_subdir>  (46) 
/opt/xchem-fragalysis-2/maxwin/BulkDock/SCRATCH/511024/C53436-P97

>  <fragmenstein_runtime>  (46) 
2.101893663406372

>  <fragmenstein_outcome>  (46) 
too moved

>  <fragmenstein_mode>  (46) 
expansion

>  <fragmenstein_error>  (46) 


$$$$
C4727-P124
     RDKit          3D

 28 30  0  0  0  0  0  0  0  0999 V2000
   12.4342   -3.8694   16.2475 C   0  0  0  0  0  0  0  0  0  0  0  0
   11.5313   -3.2371   15.3958 C   0  0  0  0  0  0  0  0  0  0  0  0
   11.8547   -2.0555   14.7362 C   0  0  0  0  0  0  0  0  0  0  0  0
   13.1163   -1.5238   14.9835 C   0  0  0  0  0  0  0  0  0  0  0  0
   13.6435   -0.2870   14.6644 N   0  0  0  0  0  0  0  0  0  0  0  0
   14.8163   -0.1177   15.3711 C   0  0  0  0  0  0  0  0  0  0  0  0
   15.4070    1.2102   15.7319 C   0  0  0  0  0  0  0  0  0  0  0  0
   16.9159    1.2658   15.5031 C   0  0  0  0  0  0  0  0  0  0  0  0
   17.5100    0.9899   16.8728 C   0  0  0  0  0  0  0  0  0  0  0  0
   16.5157    1.6432   17.8028 C   0  0  0  0  0  0  0  0  0  0  0  0
   15.2083    1.4033   17.1967 N   0  0  0  0  0  0  0  0  0  0  0  0
   15.2025   -1.3652   15.8170 C   0  0  0  0  0  0  0  0  0  0  0  0
   14.0583   -2.1786   15.7708 C   0  0  0  0  0  0  0  0  0  0  0  0
   13.7208   -3.3727   16.4170 C   0  0  0  0  0  0  0  0  0  0  0  0
   12.1453   -4.7909   16.7399 H   0  0  0  0  0  0  0  0  0  0  0  0
   10.5555   -3.6756   15.2221 H   0  0  0  0  0  0  0  0  0  0  0  0
   11.1367   -1.5389   14.1120 H   0  0  0  0  0  0  0  0  0  0  0  0
   13.0983    0.4607   14.2527 H   0  0  0  0  0  0  0  0  0  0  0  0
   14.9038    2.0115   15.1794 H   0  0  0  0  0  0  0  0  0  0  0  0
   17.2857    0.5660   14.7467 H   0  0  0  0  0  0  0  0  0  0  0  0
   17.2007    2.2792   15.1923 H   0  0  0  0  0  0  0  0  0  0  0  0
   17.5828   -0.0846   17.0665 H   0  0  0  0  0  0  0  0  0  0  0  0
   18.5127    1.4163   16.9744 H   0  0  0  0  0  0  0  0  0  0  0  0
   16.6930    2.7233   17.8571 H   0  0  0  0  0  0  0  0  0  0  0  0
   16.5729    1.2421   18.8193 H   0  0  0  0  0  0  0  0  0  0  0  0
   14.8481    0.5294   17.5792 H   0  0  0  0  0  0  0  0  0  0  0  0
   16.0956   -1.5866   16.3846 H   0  0  0  0  0  0  0  0  0  0  0  0
   14.4303   -3.8787   17.0616 H   0  0  0  0  0  0  0  0  0  0  0  0
  1  2  2  0
  2  3  1  0
  3  4  2  0
  4  5  1  0
  5  6  1  0
  6  7  1  0
  7  8  1  0
  8  9  1  0
  9 10  1  0
 10 11  1  0
  6 12  2  0
 12 13  1  0
 13 14  2  0
 14  1  1  0
 13  4  1  0
 11  7  1  0
  1 15  1  0
  2 16  1  0
  3 17  1  0
  5 18  1  0
  7 19  1  0
  8 20  1  0
  8 21  1  0
  9 22  1  0
  9 23  1  0
 10 24  1  0
 10 25  1  0
 11 26  1  0
 12 27  1  0
 14 28  1  0
M  END
>  <Energy>  (47) 
10.485331900612042

>  <compound_id>  (47) 
4727

>  <target_id>  (47) 
1

>  <reference_id>  (47) 
124

>  <inspiration_ids>  (47) 
[124, 97]

>  <energy_score>  (47) 
-6.007672325628704

>  <distance_score>  (47) 
2.019515109778082

>  <path>  (47) 
/opt/xchem-fragalysis-2/maxwin/BulkDock/SCRATCH/511024/C4727-P124/C4727-P124.minimised.mol

>  <scratch_subdir>  (47) 
/opt/xchem-fragalysis-2/maxwin/BulkDock/SCRATCH/511024/C4727-P124

>  <fragmenstein_runtime>  (47) 
1.5364837646484375

>  <fragmenstein_outcome>  (47) 
too moved

>  <fragmenstein_mode>  (47) 
expansion

>  <fragmenstein_error>  (47) 


$$$$
C4727-P97
     RDKit          3D

 28 30  0  0  0  0  0  0  0  0999 V2000
   12.5747   -3.8908   16.3549 C   0  0  0  0  0  0  0  0  0  0  0  0
   11.5586   -3.3114   15.5979 C   0  0  0  0  0  0  0  0  0  0  0  0
   11.6509   -2.0142   15.1040 C   0  0  0  0  0  0  0  0  0  0  0  0
   12.8310   -1.3328   15.3682 C   0  0  0  0  0  0  0  0  0  0  0  0
   13.1962   -0.0349   15.0915 N   0  0  0  0  0  0  0  0  0  0  0  0
   14.3901    0.2374   15.7213 C   0  0  0  0  0  0  0  0  0  0  0  0
   14.8705    1.6183   16.0302 C   0  0  0  0  0  0  0  0  0  0  0  0
   16.3831    1.7785   15.9688 C   0  0  0  0  0  0  0  0  0  0  0  0
   16.8858    1.4001   17.3596 C   0  0  0  0  0  0  0  0  0  0  0  0
   15.6574    1.3858   18.2534 C   0  0  0  0  0  0  0  0  0  0  0  0
   14.5699    1.9265   17.4392 N   0  0  0  0  0  0  0  0  0  0  0  0
   14.9295   -0.9752   16.0948 C   0  0  0  0  0  0  0  0  0  0  0  0
   13.8964   -1.9247   16.0395 C   0  0  0  0  0  0  0  0  0  0  0  0
   13.7722   -3.2196   16.5551 C   0  0  0  0  0  0  0  0  0  0  0  0
   12.4482   -4.8965   16.7439 H   0  0  0  0  0  0  0  0  0  0  0  0
   10.6691   -3.8838   15.3675 H   0  0  0  0  0  0  0  0  0  0  0  0
   10.8399   -1.5616   14.5481 H   0  0  0  0  0  0  0  0  0  0  0  0
   12.5888    0.6505   14.6638 H   0  0  0  0  0  0  0  0  0  0  0  0
   14.3784    2.3404   15.3694 H   0  0  0  0  0  0  0  0  0  0  0  0
   16.8600    1.1788   15.1863 H   0  0  0  0  0  0  0  0  0  0  0  0
   16.6354    2.8299   15.7789 H   0  0  0  0  0  0  0  0  0  0  0  0
   17.3811    0.4238   17.3533 H   0  0  0  0  0  0  0  0  0  0  0  0
   17.6215    2.1347   17.7059 H   0  0  0  0  0  0  0  0  0  0  0  0
   15.8055    1.9972   19.1489 H   0  0  0  0  0  0  0  0  0  0  0  0
   15.4300    0.3674   18.5871 H   0  0  0  0  0  0  0  0  0  0  0  0
   13.6850    1.5054   17.7074 H   0  0  0  0  0  0  0  0  0  0  0  0
   15.8848   -1.1296   16.5766 H   0  0  0  0  0  0  0  0  0  0  0  0
   14.5824   -3.6841   17.1074 H   0  0  0  0  0  0  0  0  0  0  0  0
  1  2  2  0
  2  3  1  0
  3  4  2  0
  4  5  1  0
  5  6  1  0
  6  7  1  0
  7  8  1  0
  8  9  1  0
  9 10  1  0
 10 11  1  0
  6 12  2  0
 12 13  1  0
 13 14  2  0
 14  1  1  0
 13  4  1  0
 11  7  1  0
  1 15  1  0
  2 16  1  0
  3 17  1  0
  5 18  1  0
  7 19  1  0
  8 20  1  0
  8 21  1  0
  9 22  1  0
  9 23  1  0
 10 24  1  0
 10 25  1  0
 11 26  1  0
 12 27  1  0
 14 28  1  0
M  END
>  <Energy>  (48) 
7.7613013857111817

>  <compound_id>  (48) 
4727

>  <target_id>  (48) 
1

>  <reference_id>  (48) 
97

>  <inspiration_ids>  (48) 
[124, 97]

>  <energy_score>  (48) 
-8.73170284053029

>  <distance_score>  (48) 
1.9930788257349703

>  <path>  (48) 
/opt/xchem-fragalysis-2/maxwin/BulkDock/SCRATCH/511024/C4727-P97/C4727-P97.minimised.mol

>  <scratch_subdir>  (48) 
/opt/xchem-fragalysis-2/maxwin/BulkDock/SCRATCH/511024/C4727-P97

>  <fragmenstein_runtime>  (48) 
1.4846904277801514

>  <fragmenstein_outcome>  (48) 
too moved

>  <fragmenstein_mode>  (48) 
expansion

>  <fragmenstein_error>  (48) 


$$$$
C53437-P124
     RDKit          3D

 44 46  0  0  0  0  0  0  0  0999 V2000
   16.2410   -0.0277    9.3347 C   0  0  0  0  0  0  0  0  0  0  0  0
   16.5782   -1.1248   10.7358 S   0  0  0  0  0  0  0  0  0  0  0  0
   18.3100   -0.6516   11.0919 C   0  0  0  0  0  0  0  0  0  0  0  0
   18.4202    0.7320   11.7226 C   0  0  0  0  0  0  0  0  0  0  0  0
   18.2339    0.7934   13.2466 C   0  0  0  0  0  0  0  0  0  0  0  0
   17.1910   -0.0797   13.7286 N   0  0  0  0  0  0  0  0  0  0  0  0
   17.0191   -0.7218   14.9818 C   0  0  0  0  0  0  0  0  0  0  0  0
   17.7328   -0.7708   15.9375 O   0  0  0  0  0  0  0  0  0  0  0  0
   15.6902   -1.3303   15.0843 C   0  0  0  0  0  0  0  0  0  0  0  0
   14.5507   -1.1834   14.3058 C   0  0  0  0  0  0  0  0  0  0  0  0
   13.5454   -1.9754   14.9134 C   0  0  0  0  0  0  0  0  0  0  0  0
   11.8892   -2.3929   14.6671 S   0  0  0  0  0  0  0  0  0  0  0  0
   11.9870   -3.4704   15.9943 C   0  0  0  0  0  0  0  0  0  0  0  0
   13.1840   -3.4519   16.6722 C   0  0  0  0  0  0  0  0  0  0  0  0
   14.0820   -2.5846   16.0055 C   0  0  0  0  0  0  0  0  0  0  0  0
   15.3795   -2.1732   16.1325 N   0  0  0  0  0  0  0  0  0  0  0  0
   17.9725    2.2915   13.6535 C   0  0  0  0  0  0  0  0  0  0  0  0
   18.7991    3.1245   13.3763 O   0  0  0  0  0  0  0  0  0  0  0  0
   16.7317    2.4112   14.3586 N   0  0  0  0  0  0  0  0  0  0  0  0
   15.6041    2.6940   13.3924 C   0  0  0  0  0  0  0  0  0  0  0  0
   14.2596    2.6959   14.0903 C   0  0  0  0  0  0  0  0  0  0  0  0
   14.6667    3.3106   15.3832 C   0  0  0  0  0  0  0  0  0  0  0  0
   16.1206    3.5742   15.0671 C   0  0  0  0  0  0  0  0  0  0  0  0
   17.0164   -0.1291    8.5711 H   0  0  0  0  0  0  0  0  0  0  0  0
   16.1734    1.0125    9.6608 H   0  0  0  0  0  0  0  0  0  0  0  0
   15.2833   -0.3064    8.8883 H   0  0  0  0  0  0  0  0  0  0  0  0
   18.8629   -0.6791   10.1469 H   0  0  0  0  0  0  0  0  0  0  0  0
   18.7542   -1.4118   11.7429 H   0  0  0  0  0  0  0  0  0  0  0  0
   19.4280    1.1158   11.5104 H   0  0  0  0  0  0  0  0  0  0  0  0
   17.7465    1.4414   11.2280 H   0  0  0  0  0  0  0  0  0  0  0  0
   19.1565    0.4905   13.7567 H   0  0  0  0  0  0  0  0  0  0  0  0
   16.4162   -0.3206   13.1271 H   0  0  0  0  0  0  0  0  0  0  0  0
   14.4137   -0.5841   13.4173 H   0  0  0  0  0  0  0  0  0  0  0  0
   11.1353   -4.0876   16.2170 H   0  0  0  0  0  0  0  0  0  0  0  0
   13.3962   -4.0420   17.5527 H   0  0  0  0  0  0  0  0  0  0  0  0
   16.0103   -2.4542   16.8737 H   0  0  0  0  0  0  0  0  0  0  0  0
   15.7968    3.6003   12.7909 H   0  0  0  0  0  0  0  0  0  0  0  0
   15.6024    1.8896   12.6448 H   0  0  0  0  0  0  0  0  0  0  0  0
   13.5148    3.2795   13.5420 H   0  0  0  0  0  0  0  0  0  0  0  0
   13.8691    1.6862   14.2414 H   0  0  0  0  0  0  0  0  0  0  0  0
   14.1190    4.2242   15.6287 H   0  0  0  0  0  0  0  0  0  0  0  0
   14.5569    2.5994   16.2091 H   0  0  0  0  0  0  0  0  0  0  0  0
   16.6788    3.6631   16.0086 H   0  0  0  0  0  0  0  0  0  0  0  0
   16.3201    4.5310   14.5551 H   0  0  0  0  0  0  0  0  0  0  0  0
  1  2  1  0
  2  3  1  0
  3  4  1  0
  4  5  1  0
  5  6  1  0
  6  7  1  0
  7  8  2  0
  7  9  1  0
  9 10  2  0
 10 11  1  0
 11 12  1  0
 12 13  1  0
 13 14  2  0
 14 15  1  0
 15 16  1  0
  5 17  1  0
 17 18  2  0
 17 19  1  0
 19 20  1  0
 20 21  1  0
 21 22  1  0
 22 23  1  0
 16  9  1  0
 23 19  1  0
 15 11  2  0
  1 24  1  0
  1 25  1  0
  1 26  1  0
  3 27  1  0
  3 28  1  0
  4 29  1  0
  4 30  1  0
  5 31  1  0
  6 32  1  0
 10 33  1  0
 13 34  1  0
 14 35  1  0
 16 36  1  0
 20 37  1  0
 20 38  1  0
 21 39  1  0
 21 40  1  0
 22 41  1  0
 22 42  1  0
 23 43  1  0
 23 44  1  0
M  END
>  <Energy>  (49) 
64.066403867170095

>  <compound_id>  (49) 
53437

>  <target_id>  (49) 
1

>  <reference_id>  (49) 
124

>  <inspiration_ids>  (49) 
[124, 97]

>  <energy_score>  (49) 
12.679564366820813

>  <distance_score>  (49) 
2.9309785360992766

>  <path>  (49) 
/opt/xchem-fragalysis-2/maxwin/BulkDock/SCRATCH/511024/C53437-P124/C53437-P124.minimised.mol

>  <scratch_subdir>  (49) 
/opt/xchem-fragalysis-2/maxwin/BulkDock/SCRATCH/511024/C53437-P124

>  <fragmenstein_runtime>  (49) 
6.678884744644165

>  <fragmenstein_outcome>  (49) 
too moved

>  <fragmenstein_mode>  (49) 
expansion

>  <fragmenstein_error>  (49) 


$$$$
C53437-P97
     RDKit          3D

 44 46  0  0  0  0  0  0  0  0999 V2000
   14.3084   -7.0745   14.0571 C   0  0  0  0  0  0  0  0  0  0  0  0
   16.2665   -7.5185   14.6935 S   0  0  0  0  0  0  0  0  0  0  0  0
   16.5863   -6.0507   15.7472 C   0  0  0  0  0  0  0  0  0  0  0  0
   17.6607   -5.1032   15.2234 C   0  0  0  0  0  0  0  0  0  0  0  0
   17.7264   -3.7821   16.0123 C   0  0  0  0  0  0  0  0  0  0  0  0
   16.4322   -3.1325   16.1051 N   0  0  0  0  0  0  0  0  0  0  0  0
   15.3470   -3.3385   16.9947 C   0  0  0  0  0  0  0  0  0  0  0  0
   15.1838   -4.1533   17.8504 O   0  0  0  0  0  0  0  0  0  0  0  0
   14.2909   -2.4029   16.6489 C   0  0  0  0  0  0  0  0  0  0  0  0
   14.3659   -1.0419   16.3941 C   0  0  0  0  0  0  0  0  0  0  0  0
   13.1079   -0.6850   15.8429 C   0  0  0  0  0  0  0  0  0  0  0  0
   12.3184    0.6947   15.1615 S   0  0  0  0  0  0  0  0  0  0  0  0
   10.9354   -0.2697   14.8373 C   0  0  0  0  0  0  0  0  0  0  0  0
   11.0558   -1.5865   15.2289 C   0  0  0  0  0  0  0  0  0  0  0  0
   12.3163   -1.7934   15.8367 C   0  0  0  0  0  0  0  0  0  0  0  0
   13.0008   -2.8230   16.4266 N   0  0  0  0  0  0  0  0  0  0  0  0
   18.7117   -2.8019   15.2760 C   0  0  0  0  0  0  0  0  0  0  0  0
   19.8890   -3.0539   15.2395 O   0  0  0  0  0  0  0  0  0  0  0  0
   17.9786   -1.6714   14.7564 N   0  0  0  0  0  0  0  0  0  0  0  0
   17.5094   -1.9527   13.3398 C   0  0  0  0  0  0  0  0  0  0  0  0
   16.6072   -0.8399   12.8445 C   0  0  0  0  0  0  0  0  0  0  0  0
   17.3110    0.3232   13.4534 C   0  0  0  0  0  0  0  0  0  0  0  0
   18.4575   -0.4116   14.1108 C   0  0  0  0  0  0  0  0  0  0  0  0
   13.3835   -6.6878   12.5776 H   0  0  0  0  0  0  0  0  0  0  0  0
   13.6244   -6.6681   12.4539 H   0  0  0  0  0  0  0  0  0  0  0  0
   13.5285   -6.4473   12.5743 H   0  0  0  0  0  0  0  0  0  0  0  0
   15.6311   -5.5406   15.8332 H   0  0  0  0  0  0  0  0  0  0  0  0
   16.8679   -6.4075   16.7434 H   0  0  0  0  0  0  0  0  0  0  0  0
   18.6392   -5.5982   15.2754 H   0  0  0  0  0  0  0  0  0  0  0  0
   17.5035   -4.8793   14.1695 H   0  0  0  0  0  0  0  0  0  0  0  0
   18.0888   -3.9507   17.0320 H   0  0  0  0  0  0  0  0  0  0  0  0
   16.2625   -2.2909   15.5668 H   0  0  0  0  0  0  0  0  0  0  0  0
   15.2302   -0.4027   16.5193 H   0  0  0  0  0  0  0  0  0  0  0  0
   10.0874    0.1735   14.3301 H   0  0  0  0  0  0  0  0  0  0  0  0
   10.2950   -2.3355   15.0558 H   0  0  0  0  0  0  0  0  0  0  0  0
   12.6279   -3.7544   16.5747 H   0  0  0  0  0  0  0  0  0  0  0  0
   18.3485   -2.1959   12.6650 H   0  0  0  0  0  0  0  0  0  0  0  0
   16.9179   -2.8750   13.3658 H   0  0  0  0  0  0  0  0  0  0  0  0
   15.5902   -0.9367   13.2388 H   0  0  0  0  0  0  0  0  0  0  0  0
   16.5593   -0.8040   11.7528 H   0  0  0  0  0  0  0  0  0  0  0  0
   17.6539    1.0614   12.7235 H   0  0  0  0  0  0  0  0  0  0  0  0
   16.6762    0.8249   14.1916 H   0  0  0  0  0  0  0  0  0  0  0  0
   18.8502    0.2020   14.9324 H   0  0  0  0  0  0  0  0  0  0  0  0
   19.3368   -0.5777   13.4656 H   0  0  0  0  0  0  0  0  0  0  0  0
  1  2  1  0
  2  3  1  0
  3  4  1  0
  4  5  1  0
  5  6  1  0
  6  7  1  0
  7  8  2  0
  7  9  1  0
  9 10  2  0
 10 11  1  0
 11 12  1  0
 12 13  1  0
 13 14  2  0
 14 15  1  0
 15 16  1  0
  5 17  1  0
 17 18  2  0
 17 19  1  0
 19 20  1  0
 20 21  1  0
 21 22  1  0
 22 23  1  0
 16  9  1  0
 23 19  1  0
 15 11  2  0
  1 24  1  0
  1 25  1  0
  1 26  1  0
  3 27  1  0
  3 28  1  0
  4 29  1  0
  4 30  1  0
  5 31  1  0
  6 32  1  0
 10 33  1  0
 13 34  1  0
 14 35  1  0
 16 36  1  0
 20 37  1  0
 20 38  1  0
 21 39  1  0
 21 40  1  0
 22 41  1  0
 22 42  1  0
 23 43  1  0
 23 44  1  0
M  END
>  <Energy>  (50) 
945.73838857381008

>  <compound_id>  (50) 
53437

>  <target_id>  (50) 
1

>  <reference_id>  (50) 
97

>  <inspiration_ids>  (50) 
[124, 97]

>  <energy_score>  (50) 
894.3515490734561

>  <distance_score>  (50) 
2.748175295605631

>  <path>  (50) 
/opt/xchem-fragalysis-2/maxwin/BulkDock/SCRATCH/511024/C53437-P97/C53437-P97.minimised.mol

>  <scratch_subdir>  (50) 
/opt/xchem-fragalysis-2/maxwin/BulkDock/SCRATCH/511024/C53437-P97

>  <fragmenstein_runtime>  (50) 
7.680378198623657

>  <fragmenstein_outcome>  (50) 
too moved

>  <fragmenstein_mode>  (50) 
expansion

>  <fragmenstein_error>  (50) 


$$$$
C53439-P124
     RDKit          3D

 38 40  0  0  0  0  0  0  0  0999 V2000
   14.8117   -4.9196   19.3438 O   0  0  0  0  0  0  0  0  0  0  0  0
   15.2725   -3.9325   18.8572 C   0  0  0  0  0  0  0  0  0  0  0  0
   16.4260   -3.1735   19.2093 N   0  0  0  0  0  0  0  0  0  0  0  0
   17.3427   -3.3022   20.3159 C   0  0  0  0  0  0  0  0  0  0  0  0
   16.8781   -2.6539   21.6442 C   0  0  0  0  0  0  0  0  0  0  0  0
   15.9774   -3.5338   22.5066 C   0  0  0  0  0  0  0  0  0  0  0  0
   15.0117   -2.5141   22.9512 C   0  0  0  0  0  0  0  0  0  0  0  0
   15.1687   -1.6293   21.7459 C   0  0  0  0  0  0  0  0  0  0  0  0
   16.5839   -1.1544   21.4987 N   0  0  0  0  0  0  0  0  0  0  0  0
   16.8907   -0.0560   22.3597 C   0  0  0  0  0  0  0  0  0  0  0  0
   17.3784   -0.0362   23.4609 O   0  0  0  0  0  0  0  0  0  0  0  0
   16.5613    1.2669   21.6436 C   0  0  0  0  0  0  0  0  0  0  0  0
   16.4443    2.3501   22.5555 O   0  0  0  0  0  0  0  0  0  0  0  0
   14.6135   -3.3931   17.6552 C   0  0  0  0  0  0  0  0  0  0  0  0
   13.3201   -3.6911   17.2402 C   0  0  0  0  0  0  0  0  0  0  0  0
   13.0672   -2.9175   16.0805 C   0  0  0  0  0  0  0  0  0  0  0  0
   11.7779   -2.5755   14.9808 S   0  0  0  0  0  0  0  0  0  0  0  0
   12.7914   -1.4516   14.1625 C   0  0  0  0  0  0  0  0  0  0  0  0
   14.0759   -1.3745   14.6580 C   0  0  0  0  0  0  0  0  0  0  0  0
   14.2023   -2.2289   15.7838 C   0  0  0  0  0  0  0  0  0  0  0  0
   15.1704   -2.5752   16.6929 N   0  0  0  0  0  0  0  0  0  0  0  0
   16.4667   -2.3507   18.6298 H   0  0  0  0  0  0  0  0  0  0  0  0
   18.2763   -2.8311   19.9885 H   0  0  0  0  0  0  0  0  0  0  0  0
   17.5372   -4.3693   20.4697 H   0  0  0  0  0  0  0  0  0  0  0  0
   17.8118   -2.6193   22.2309 H   0  0  0  0  0  0  0  0  0  0  0  0
   15.4939   -4.3241   21.9229 H   0  0  0  0  0  0  0  0  0  0  0  0
   16.5071   -4.0064   23.3396 H   0  0  0  0  0  0  0  0  0  0  0  0
   15.3286   -2.0158   23.8729 H   0  0  0  0  0  0  0  0  0  0  0  0
   14.0007   -2.9060   23.0825 H   0  0  0  0  0  0  0  0  0  0  0  0
   14.7464   -2.0572   20.8258 H   0  0  0  0  0  0  0  0  0  0  0  0
   14.5612   -0.7303   21.9202 H   0  0  0  0  0  0  0  0  0  0  0  0
   17.3733    1.4900   20.9447 H   0  0  0  0  0  0  0  0  0  0  0  0
   15.6240    1.1885   21.0865 H   0  0  0  0  0  0  0  0  0  0  0  0
   17.0385    2.1283   23.3008 H   0  0  0  0  0  0  0  0  0  0  0  0
   12.6306   -4.3549   17.7415 H   0  0  0  0  0  0  0  0  0  0  0  0
   12.3770   -0.8965   13.3335 H   0  0  0  0  0  0  0  0  0  0  0  0
   14.8477   -0.7369   14.2472 H   0  0  0  0  0  0  0  0  0  0  0  0
   16.1274   -2.2528   16.6177 H   0  0  0  0  0  0  0  0  0  0  0  0
  1  2  2  0
  2  3  1  0
  3  4  1  0
  4  5  1  0
  5  6  1  0
  6  7  1  0
  7  8  1  0
  8  9  1  0
  9 10  1  0
 10 11  2  0
 10 12  1  0
 12 13  1  0
  2 14  1  0
 14 15  2  0
 15 16  1  0
 16 17  1  0
 17 18  1  0
 18 19  2  0
 19 20  1  0
 20 21  1  0
  9  5  1  0
 21 14  1  0
 20 16  2  0
  3 22  1  0
  4 23  1  0
  4 24  1  0
  5 25  1  0
  6 26  1  0
  6 27  1  0
  7 28  1  0
  7 29  1  0
  8 30  1  0
  8 31  1  0
 12 32  1  0
 12 33  1  0
 13 34  1  0
 15 35  1  0
 18 36  1  0
 19 37  1  0
 21 38  1  0
M  END
>  <Energy>  (51) 
85.03160535346889

>  <compound_id>  (51) 
53439

>  <target_id>  (51) 
1

>  <reference_id>  (51) 
124

>  <inspiration_ids>  (51) 
[124, 97]

>  <energy_score>  (51) 
13.199597778607966

>  <distance_score>  (51) 
4.074619405616448

>  <path>  (51) 
/opt/xchem-fragalysis-2/maxwin/BulkDock/SCRATCH/511024/C53439-P124/C53439-P124.minimised.mol

>  <scratch_subdir>  (51) 
/opt/xchem-fragalysis-2/maxwin/BulkDock/SCRATCH/511024/C53439-P124

>  <fragmenstein_runtime>  (51) 
4.932665824890137

>  <fragmenstein_outcome>  (51) 
too moved

>  <fragmenstein_mode>  (51) 
expansion

>  <fragmenstein_error>  (51) 


$$$$
C53439-P97
     RDKit          3D

 38 40  0  0  0  0  0  0  0  0999 V2000
   16.0206   -4.4495   18.6478 O   0  0  0  0  0  0  0  0  0  0  0  0
   14.8633   -4.3336   18.6977 C   0  0  0  0  0  0  0  0  0  0  0  0
   13.8729   -4.7041   19.8114 N   0  0  0  0  0  0  0  0  0  0  0  0
   14.0846   -5.3847   21.0658 C   0  0  0  0  0  0  0  0  0  0  0  0
   14.8872   -4.6040   22.1502 C   0  0  0  0  0  0  0  0  0  0  0  0
   14.0493   -3.9087   23.2212 C   0  0  0  0  0  0  0  0  0  0  0  0
   14.7172   -2.5942   23.2180 C   0  0  0  0  0  0  0  0  0  0  0  0
   15.2723   -2.7139   21.8263 C   0  0  0  0  0  0  0  0  0  0  0  0
   16.1462   -3.9301   21.6187 N   0  0  0  0  0  0  0  0  0  0  0  0
   17.5126   -3.7412   22.2578 C   0  0  0  0  0  0  0  0  0  0  0  0
   17.8887   -4.0021   23.3426 O   0  0  0  0  0  0  0  0  0  0  0  0
   18.4486   -3.1937   21.1511 C   0  0  0  0  0  0  0  0  0  0  0  0
   17.8369   -2.7221   19.9603 O   0  0  0  0  0  0  0  0  0  0  0  0
   14.1701   -3.6557   17.6127 C   0  0  0  0  0  0  0  0  0  0  0  0
   12.9226   -3.8514   17.0427 C   0  0  0  0  0  0  0  0  0  0  0  0
   12.7601   -2.8263   16.0708 C   0  0  0  0  0  0  0  0  0  0  0  0
   11.5772   -2.2403   14.9627 S   0  0  0  0  0  0  0  0  0  0  0  0
   12.6645   -1.0087   14.4524 C   0  0  0  0  0  0  0  0  0  0  0  0
   13.8850   -1.0339   15.0928 C   0  0  0  0  0  0  0  0  0  0  0  0
   13.9101   -2.1005   16.0275 C   0  0  0  0  0  0  0  0  0  0  0  0
   14.7930   -2.6414   16.9235 N   0  0  0  0  0  0  0  0  0  0  0  0
   12.9394   -4.3882   19.5547 H   0  0  0  0  0  0  0  0  0  0  0  0
   13.1165   -5.7158   21.4488 H   0  0  0  0  0  0  0  0  0  0  0  0
   14.6677   -6.2772   20.8094 H   0  0  0  0  0  0  0  0  0  0  0  0
   15.3392   -5.4291   22.7275 H   0  0  0  0  0  0  0  0  0  0  0  0
   14.1069   -4.3988   24.1984 H   0  0  0  0  0  0  0  0  0  0  0  0
   12.9945   -3.8455   22.9359 H   0  0  0  0  0  0  0  0  0  0  0  0
   15.5083   -2.5331   23.9724 H   0  0  0  0  0  0  0  0  0  0  0  0
   14.0361   -1.7509   23.3496 H   0  0  0  0  0  0  0  0  0  0  0  0
   14.5151   -2.6170   21.0345 H   0  0  0  0  0  0  0  0  0  0  0  0
   15.9242   -1.8434   21.6669 H   0  0  0  0  0  0  0  0  0  0  0  0
   19.0144   -2.3613   21.5807 H   0  0  0  0  0  0  0  0  0  0  0  0
   19.1486   -3.9909   20.8815 H   0  0  0  0  0  0  0  0  0  0  0  0
   17.2561   -3.4584   19.6617 H   0  0  0  0  0  0  0  0  0  0  0  0
   12.2003   -4.6128   17.2878 H   0  0  0  0  0  0  0  0  0  0  0  0
   12.3400   -0.3227   13.6815 H   0  0  0  0  0  0  0  0  0  0  0  0
   14.6947   -0.3437   14.8937 H   0  0  0  0  0  0  0  0  0  0  0  0
   15.7417   -2.3115   17.0651 H   0  0  0  0  0  0  0  0  0  0  0  0
  1  2  2  0
  2  3  1  0
  3  4  1  0
  4  5  1  0
  5  6  1  0
  6  7  1  0
  7  8  1  0
  8  9  1  0
  9 10  1  0
 10 11  2  0
 10 12  1  0
 12 13  1  0
  2 14  1  0
 14 15  2  0
 15 16  1  0
 16 17  1  0
 17 18  1  0
 18 19  2  0
 19 20  1  0
 20 21  1  0
  9  5  1  0
 21 14  1  0
 20 16  2  0
  3 22  1  0
  4 23  1  0
  4 24  1  0
  5 25  1  0
  6 26  1  0
  6 27  1  0
  7 28  1  0
  7 29  1  0
  8 30  1  0
  8 31  1  0
 12 32  1  0
 12 33  1  0
 13 34  1  0
 15 35  1  0
 18 36  1  0
 19 37  1  0
 21 38  1  0
M  END
>  <Energy>  (52) 
102.56688545308312

>  <compound_id>  (52) 
53439

>  <target_id>  (52) 
1

>  <reference_id>  (52) 
97

>  <inspiration_ids>  (52) 
[124, 97]

>  <energy_score>  (52) 
48.17947908967514

>  <distance_score>  (52) 
4.854068735245557

>  <path>  (52) 
/opt/xchem-fragalysis-2/maxwin/BulkDock/SCRATCH/511024/C53439-P97/C53439-P97.minimised.mol

>  <scratch_subdir>  (52) 
/opt/xchem-fragalysis-2/maxwin/BulkDock/SCRATCH/511024/C53439-P97

>  <fragmenstein_runtime>  (52) 
2.6766161918640137

>  <fragmenstein_outcome>  (52) 
too moved

>  <fragmenstein_mode>  (52) 
expansion

>  <fragmenstein_error>  (52) 


$$$$
C53440-P124
     RDKit          3D

 40 43  0  0  0  0  0  0  0  0999 V2000
   17.9172    0.2680   19.9566 O   0  0  0  0  0  0  0  0  0  0  0  0
   19.0465    0.6226   19.7343 C   0  0  0  0  0  0  0  0  0  0  0  0
   20.1709   -0.4238   19.6372 C   0  0  0  0  0  0  0  0  0  0  0  0
   19.6660   -1.6752   19.1925 O   0  0  0  0  0  0  0  0  0  0  0  0
   19.5905    1.9291   19.5602 N   0  0  0  0  0  0  0  0  0  0  0  0
   18.9601    3.2773   19.7067 C   0  0  0  0  0  0  0  0  0  0  0  0
   17.7087    3.4349   18.8776 C   0  0  0  0  0  0  0  0  0  0  0  0
   18.2923    3.0206   17.5753 C   0  0  0  0  0  0  0  0  0  0  0  0
   17.3937    2.2806   16.7374 N   0  0  0  0  0  0  0  0  0  0  0  0
   17.0346    0.9751   16.7859 C   0  0  0  0  0  0  0  0  0  0  0  0
   16.0541    0.8738   15.8315 C   0  0  0  0  0  0  0  0  0  0  0  0
   15.1881   -0.3661   15.5978 C   0  0  0  0  0  0  0  0  0  0  0  0
   15.2698   -1.5510   16.2886 C   0  0  0  0  0  0  0  0  0  0  0  0
   14.0809   -2.2662   16.0125 C   0  0  0  0  0  0  0  0  0  0  0  0
   13.4965   -3.4069   16.5818 C   0  0  0  0  0  0  0  0  0  0  0  0
   12.2177   -3.7732   16.1687 C   0  0  0  0  0  0  0  0  0  0  0  0
   11.5473   -3.0571   15.1785 C   0  0  0  0  0  0  0  0  0  0  0  0
   12.1257   -1.9442   14.5715 C   0  0  0  0  0  0  0  0  0  0  0  0
   13.3842   -1.5562   15.0314 C   0  0  0  0  0  0  0  0  0  0  0  0
   14.1310   -0.4374   14.7337 N   0  0  0  0  0  0  0  0  0  0  0  0
   15.8894    2.0700   15.2036 N   0  0  0  0  0  0  0  0  0  0  0  0
   16.7154    2.9365   15.7757 N   0  0  0  0  0  0  0  0  0  0  0  0
   19.5601    2.3254   18.0768 C   0  0  0  0  0  0  0  0  0  0  0  0
   20.6110   -0.5542   20.6305 H   0  0  0  0  0  0  0  0  0  0  0  0
   20.9508   -0.1038   18.9412 H   0  0  0  0  0  0  0  0  0  0  0  0
   18.8309   -1.8110   19.6821 H   0  0  0  0  0  0  0  0  0  0  0  0
   19.7023    4.0811   19.5688 H   0  0  0  0  0  0  0  0  0  0  0  0
   18.6684    3.3384   20.7636 H   0  0  0  0  0  0  0  0  0  0  0  0
   17.3338    4.4625   18.8774 H   0  0  0  0  0  0  0  0  0  0  0  0
   16.9094    2.7720   19.2273 H   0  0  0  0  0  0  0  0  0  0  0  0
   18.6059    3.8982   16.9927 H   0  0  0  0  0  0  0  0  0  0  0  0
   17.4270    0.2637   17.4935 H   0  0  0  0  0  0  0  0  0  0  0  0
   16.0079   -1.8073   17.0370 H   0  0  0  0  0  0  0  0  0  0  0  0
   14.0057   -3.9623   17.3609 H   0  0  0  0  0  0  0  0  0  0  0  0
   11.7498   -4.6480   16.6092 H   0  0  0  0  0  0  0  0  0  0  0  0
   10.5596   -3.3758   14.8613 H   0  0  0  0  0  0  0  0  0  0  0  0
   11.5930   -1.3760   13.8158 H   0  0  0  0  0  0  0  0  0  0  0  0
   13.8310    0.3138   14.1263 H   0  0  0  0  0  0  0  0  0  0  0  0
   20.4480    2.9554   17.8955 H   0  0  0  0  0  0  0  0  0  0  0  0
   19.7548    1.4187   17.4875 H   0  0  0  0  0  0  0  0  0  0  0  0
  1  2  2  0
  2  3  1  0
  3  4  1  0
  2  5  1  0
  5  6  1  0
  6  7  1  0
  7  8  1  0
  8  9  1  0
  9 10  1  0
 10 11  2  0
 11 12  1  0
 12 13  2  0
 13 14  1  0
 14 15  2  0
 15 16  1  0
 16 17  2  0
 17 18  1  0
 18 19  2  0
 19 20  1  0
 11 21  1  0
 21 22  2  0
  8 23  1  0
 23  5  1  0
 22  9  1  0
 20 12  1  0
 19 14  1  0
  3 24  1  0
  3 25  1  0
  4 26  1  0
  6 27  1  0
  6 28  1  0
  7 29  1  0
  7 30  1  0
  8 31  1  0
 10 32  1  0
 13 33  1  0
 15 34  1  0
 16 35  1  0
 17 36  1  0
 18 37  1  0
 20 38  1  0
 23 39  1  0
 23 40  1  0
M  END
>  <Energy>  (53) 
92.161036448774368

>  <compound_id>  (53) 
53440

>  <target_id>  (53) 
1

>  <reference_id>  (53) 
124

>  <inspiration_ids>  (53) 
[124, 97]

>  <energy_score>  (53) 
33.61693517963906

>  <distance_score>  (53) 
4.867805142317367

>  <path>  (53) 
/opt/xchem-fragalysis-2/maxwin/BulkDock/SCRATCH/511024/C53440-P124/C53440-P124.minimised.mol

>  <scratch_subdir>  (53) 
/opt/xchem-fragalysis-2/maxwin/BulkDock/SCRATCH/511024/C53440-P124

>  <fragmenstein_runtime>  (53) 
7.4056432247161865

>  <fragmenstein_outcome>  (53) 
too moved

>  <fragmenstein_mode>  (53) 
expansion

>  <fragmenstein_error>  (53) 


$$$$
C53440-P97
     RDKit          3D

 40 43  0  0  0  0  0  0  0  0999 V2000
   18.7730    7.8671   18.7474 O   0  0  0  0  0  0  0  0  0  0  0  0
   18.9864    6.8089   19.2819 C   0  0  0  0  0  0  0  0  0  0  0  0
   19.1758    6.7522   20.8086 C   0  0  0  0  0  0  0  0  0  0  0  0
   18.4773    7.8042   21.4596 O   0  0  0  0  0  0  0  0  0  0  0  0
   19.1574    5.5073   18.7257 N   0  0  0  0  0  0  0  0  0  0  0  0
   19.2368    5.0550   17.3000 C   0  0  0  0  0  0  0  0  0  0  0  0
   19.1076    3.5533   17.1874 C   0  0  0  0  0  0  0  0  0  0  0  0
   17.9975    3.3540   18.1698 C   0  0  0  0  0  0  0  0  0  0  0  0
   16.8240    2.7575   17.5971 N   0  0  0  0  0  0  0  0  0  0  0  0
   16.4273    1.4649   17.7194 C   0  0  0  0  0  0  0  0  0  0  0  0
   15.3776    1.3732   16.8418 C   0  0  0  0  0  0  0  0  0  0  0  0
   14.5761    0.1045   16.5559 C   0  0  0  0  0  0  0  0  0  0  0  0
   14.7563   -1.1231   17.1429 C   0  0  0  0  0  0  0  0  0  0  0  0
   13.7374   -1.9738   16.6555 C   0  0  0  0  0  0  0  0  0  0  0  0
   13.3735   -3.2958   16.9477 C   0  0  0  0  0  0  0  0  0  0  0  0
   12.2542   -3.8266   16.3150 C   0  0  0  0  0  0  0  0  0  0  0  0
   11.5354   -3.0837   15.3792 C   0  0  0  0  0  0  0  0  0  0  0  0
   11.8860   -1.7726   15.0661 C   0  0  0  0  0  0  0  0  0  0  0  0
   12.9859   -1.2397   15.7355 C   0  0  0  0  0  0  0  0  0  0  0  0
   13.5427    0.0155   15.6677 N   0  0  0  0  0  0  0  0  0  0  0  0
   15.1462    2.5829   16.2592 N   0  0  0  0  0  0  0  0  0  0  0  0
   16.0446    3.4341   16.7359 N   0  0  0  0  0  0  0  0  0  0  0  0
   17.8232    4.7903   18.6432 C   0  0  0  0  0  0  0  0  0  0  0  0
   20.2433    6.8548   21.0263 H   0  0  0  0  0  0  0  0  0  0  0  0
   18.8211    5.8033   21.2185 H   0  0  0  0  0  0  0  0  0  0  0  0
   18.5569    8.5763   20.8641 H   0  0  0  0  0  0  0  0  0  0  0  0
   20.2384    5.3522   16.9616 H   0  0  0  0  0  0  0  0  0  0  0  0
   18.5596    5.6280   16.6438 H   0  0  0  0  0  0  0  0  0  0  0  0
   20.0231    3.0588   17.5317 H   0  0  0  0  0  0  0  0  0  0  0  0
   18.9025    3.2313   16.1621 H   0  0  0  0  0  0  0  0  0  0  0  0
   18.3333    2.7166   18.9973 H   0  0  0  0  0  0  0  0  0  0  0  0
   16.9215    0.7468   18.3562 H   0  0  0  0  0  0  0  0  0  0  0  0
   15.5022   -1.3808   17.8823 H   0  0  0  0  0  0  0  0  0  0  0  0
   13.9266   -3.8830   17.6732 H   0  0  0  0  0  0  0  0  0  0  0  0
   11.9402   -4.8381   16.5568 H   0  0  0  0  0  0  0  0  0  0  0  0
   10.6825   -3.5338   14.8803 H   0  0  0  0  0  0  0  0  0  0  0  0
   11.3189   -1.1999   14.3391 H   0  0  0  0  0  0  0  0  0  0  0  0
   13.2145    0.7725   15.0834 H   0  0  0  0  0  0  0  0  0  0  0  0
   17.4149    4.7660   19.6639 H   0  0  0  0  0  0  0  0  0  0  0  0
   17.0825    5.3954   18.0912 H   0  0  0  0  0  0  0  0  0  0  0  0
  1  2  2  0
  2  3  1  0
  3  4  1  0
  2  5  1  0
  5  6  1  0
  6  7  1  0
  7  8  1  0
  8  9  1  0
  9 10  1  0
 10 11  2  0
 11 12  1  0
 12 13  2  0
 13 14  1  0
 14 15  2  0
 15 16  1  0
 16 17  2  0
 17 18  1  0
 18 19  2  0
 19 20  1  0
 11 21  1  0
 21 22  2  0
  8 23  1  0
 23  5  1  0
 22  9  1  0
 20 12  1  0
 19 14  1  0
  3 24  1  0
  3 25  1  0
  4 26  1  0
  6 27  1  0
  6 28  1  0
  7 29  1  0
  7 30  1  0
  8 31  1  0
 10 32  1  0
 13 33  1  0
 15 34  1  0
 16 35  1  0
 17 36  1  0
 18 37  1  0
 20 38  1  0
 23 39  1  0
 23 40  1  0
M  END
>  <Energy>  (54) 
84.592995020515545

>  <compound_id>  (54) 
53440

>  <target_id>  (54) 
1

>  <reference_id>  (54) 
97

>  <inspiration_ids>  (54) 
[124, 97]

>  <energy_score>  (54) 
26.048893751379495

>  <distance_score>  (54) 
6.104705533921031

>  <path>  (54) 
/opt/xchem-fragalysis-2/maxwin/BulkDock/SCRATCH/511024/C53440-P97/C53440-P97.minimised.mol

>  <scratch_subdir>  (54) 
/opt/xchem-fragalysis-2/maxwin/BulkDock/SCRATCH/511024/C53440-P97

>  <fragmenstein_runtime>  (54) 
7.047144174575806

>  <fragmenstein_outcome>  (54) 
too moved

>  <fragmenstein_mode>  (54) 
expansion

>  <fragmenstein_error>  (54) 


$$$$
C53441-P124
     RDKit          3D

 41 43  0  0  0  0  0  0  0  0999 V2000
   15.9224   -3.3241   17.9446 C   0  0  0  0  0  0  0  0  0  0  0  0
   15.4543   -2.5154   16.7915 N   0  0  0  0  0  0  0  0  0  0  0  0
   16.3950   -3.4593   16.0289 C   0  0  0  0  0  0  0  0  0  0  0  0
   17.8321   -2.9631   15.7518 C   0  0  0  0  0  0  0  0  0  0  0  0
   18.9265   -3.6397   16.5144 C   0  0  0  0  0  0  0  0  0  0  0  0
   19.6069   -2.4146   17.0837 C   0  0  0  0  0  0  0  0  0  0  0  0
   19.6509   -1.2836   16.1051 N   0  0  0  0  0  0  0  0  0  0  0  0
   19.9269    0.1014   16.2948 C   0  0  0  0  0  0  0  0  0  0  0  0
   20.1083    0.7330   17.3049 O   0  0  0  0  0  0  0  0  0  0  0  0
   19.9633    0.8224   14.9359 C   0  0  0  0  0  0  0  0  0  0  0  0
   19.3165    2.0868   15.0259 O   0  0  0  0  0  0  0  0  0  0  0  0
   18.1584   -1.5243   16.0996 C   0  0  0  0  0  0  0  0  0  0  0  0
   14.1839   -2.4639   16.1464 C   0  0  0  0  0  0  0  0  0  0  0  0
   13.1982   -3.1250   16.3137 O   0  0  0  0  0  0  0  0  0  0  0  0
   14.1612   -1.3338   15.2201 C   0  0  0  0  0  0  0  0  0  0  0  0
   13.2794   -1.0865   14.1767 C   0  0  0  0  0  0  0  0  0  0  0  0
   13.6819    0.1562   13.6056 C   0  0  0  0  0  0  0  0  0  0  0  0
   13.2358    1.2441   12.3336 S   0  0  0  0  0  0  0  0  0  0  0  0
   14.5444    2.2792   12.7525 C   0  0  0  0  0  0  0  0  0  0  0  0
   15.2847    1.8422   13.8295 C   0  0  0  0  0  0  0  0  0  0  0  0
   14.7541    0.6168   14.3057 C   0  0  0  0  0  0  0  0  0  0  0  0
   15.0198   -0.2631   15.3142 N   0  0  0  0  0  0  0  0  0  0  0  0
   15.5402   -4.3532   17.9764 H   0  0  0  0  0  0  0  0  0  0  0  0
   16.9725   -3.2008   18.2213 H   0  0  0  0  0  0  0  0  0  0  0  0
   15.3913   -2.8631   18.7913 H   0  0  0  0  0  0  0  0  0  0  0  0
   15.9638   -3.4460   15.0134 H   0  0  0  0  0  0  0  0  0  0  0  0
   16.3282   -4.5447   16.2213 H   0  0  0  0  0  0  0  0  0  0  0  0
   18.0369   -3.1256   14.6832 H   0  0  0  0  0  0  0  0  0  0  0  0
   19.5968   -4.1764   15.8330 H   0  0  0  0  0  0  0  0  0  0  0  0
   18.6073   -4.3397   17.2904 H   0  0  0  0  0  0  0  0  0  0  0  0
   19.2180   -2.0902   18.0639 H   0  0  0  0  0  0  0  0  0  0  0  0
   20.6582   -2.6554   17.2902 H   0  0  0  0  0  0  0  0  0  0  0  0
   19.4719    0.2403   14.1520 H   0  0  0  0  0  0  0  0  0  0  0  0
   21.0090    0.9782   14.6535 H   0  0  0  0  0  0  0  0  0  0  0  0
   19.6626    2.4930   15.8452 H   0  0  0  0  0  0  0  0  0  0  0  0
   17.7532   -0.8851   15.3044 H   0  0  0  0  0  0  0  0  0  0  0  0
   17.6922   -1.1341   17.0204 H   0  0  0  0  0  0  0  0  0  0  0  0
   12.4525   -1.7139   13.8674 H   0  0  0  0  0  0  0  0  0  0  0  0
   14.6993    3.1809   12.1764 H   0  0  0  0  0  0  0  0  0  0  0  0
   16.1391    2.3680   14.2376 H   0  0  0  0  0  0  0  0  0  0  0  0
   15.7284   -0.1194   16.0200 H   0  0  0  0  0  0  0  0  0  0  0  0
  1  2  1  0
  2  3  1  0
  3  4  1  0
  4  5  1  0
  5  6  1  0
  6  7  1  0
  7  8  1  0
  8  9  2  0
  8 10  1  0
 10 11  1  0
  7 12  1  0
  2 13  1  0
 13 14  2  0
 13 15  1  0
 15 16  2  0
 16 17  1  0
 17 18  1  0
 18 19  1  0
 19 20  2  0
 20 21  1  0
 21 22  1  0
 12  4  1  0
 22 15  1  0
 21 17  2  0
  1 23  1  0
  1 24  1  0
  1 25  1  0
  3 26  1  0
  3 27  1  0
  4 28  1  0
  5 29  1  0
  5 30  1  0
  6 31  1  0
  6 32  1  0
 10 33  1  0
 10 34  1  0
 11 35  1  0
 12 36  1  0
 12 37  1  0
 16 38  1  0
 19 39  1  0
 20 40  1  0
 22 41  1  0
M  END
>  <Energy>  (55) 
145.72777128061526

>  <compound_id>  (55) 
53441

>  <target_id>  (55) 
1

>  <reference_id>  (55) 
124

>  <inspiration_ids>  (55) 
[124, 97]

>  <energy_score>  (55) 
82.87737665212018

>  <distance_score>  (55) 
3.2296137618675407

>  <path>  (55) 
/opt/xchem-fragalysis-2/maxwin/BulkDock/SCRATCH/511024/C53441-P124/C53441-P124.minimised.mol

>  <scratch_subdir>  (55) 
/opt/xchem-fragalysis-2/maxwin/BulkDock/SCRATCH/511024/C53441-P124

>  <fragmenstein_runtime>  (55) 
3.6325132846832275

>  <fragmenstein_outcome>  (55) 
too moved

>  <fragmenstein_mode>  (55) 
expansion

>  <fragmenstein_error>  (55) 


$$$$
C53441-P97
     RDKit          3D

 41 43  0  0  0  0  0  0  0  0999 V2000
   14.4373   -3.8966   18.6639 C   0  0  0  0  0  0  0  0  0  0  0  0
   14.1679   -2.9563   17.5472 N   0  0  0  0  0  0  0  0  0  0  0  0
   15.3881   -3.6942   16.9287 C   0  0  0  0  0  0  0  0  0  0  0  0
   16.2114   -2.7740   16.0018 C   0  0  0  0  0  0  0  0  0  0  0  0
   17.2625   -3.5000   15.2197 C   0  0  0  0  0  0  0  0  0  0  0  0
   18.4883   -2.7968   15.7489 C   0  0  0  0  0  0  0  0  0  0  0  0
   18.2644   -1.3293   15.9278 N   0  0  0  0  0  0  0  0  0  0  0  0
   19.0223   -0.3493   16.6434 C   0  0  0  0  0  0  0  0  0  0  0  0
   19.9837   -0.4720   17.3566 O   0  0  0  0  0  0  0  0  0  0  0  0
   18.4809    1.0613   16.3139 C   0  0  0  0  0  0  0  0  0  0  0  0
   17.1975    1.1146   15.7125 O   0  0  0  0  0  0  0  0  0  0  0  0
   17.1222   -1.8344   16.7809 C   0  0  0  0  0  0  0  0  0  0  0  0
   13.0915   -2.9098   16.6070 C   0  0  0  0  0  0  0  0  0  0  0  0
   12.1828   -3.6701   16.4262 O   0  0  0  0  0  0  0  0  0  0  0  0
   13.1125   -1.6635   15.8425 C   0  0  0  0  0  0  0  0  0  0  0  0
   12.3978   -1.3666   14.6890 C   0  0  0  0  0  0  0  0  0  0  0  0
   12.7201   -0.0221   14.3550 C   0  0  0  0  0  0  0  0  0  0  0  0
   12.3532    1.1713   13.1542 S   0  0  0  0  0  0  0  0  0  0  0  0
   13.4162    2.2795   13.9298 C   0  0  0  0  0  0  0  0  0  0  0  0
   14.0113    1.7845   15.0702 C   0  0  0  0  0  0  0  0  0  0  0  0
   13.5818    0.4520   15.2957 C   0  0  0  0  0  0  0  0  0  0  0  0
   13.7900   -0.5283   16.2270 N   0  0  0  0  0  0  0  0  0  0  0  0
   13.5915   -3.7357   19.3474 H   0  0  0  0  0  0  0  0  0  0  0  0
   14.3427   -4.9630   18.4193 H   0  0  0  0  0  0  0  0  0  0  0  0
   15.3147   -3.6178   19.2654 H   0  0  0  0  0  0  0  0  0  0  0  0
   14.9896   -4.5167   16.3133 H   0  0  0  0  0  0  0  0  0  0  0  0
   16.1551   -4.1273   17.5988 H   0  0  0  0  0  0  0  0  0  0  0  0
   15.5870   -2.2279   15.2931 H   0  0  0  0  0  0  0  0  0  0  0  0
   17.1413   -3.3165   14.1463 H   0  0  0  0  0  0  0  0  0  0  0  0
   17.3025   -4.5808   15.3831 H   0  0  0  0  0  0  0  0  0  0  0  0
   18.9236   -3.2578   16.6519 H   0  0  0  0  0  0  0  0  0  0  0  0
   19.2933   -2.8755   15.0060 H   0  0  0  0  0  0  0  0  0  0  0  0
   19.1951    1.5483   15.6424 H   0  0  0  0  0  0  0  0  0  0  0  0
   18.4308    1.6290   17.2480 H   0  0  0  0  0  0  0  0  0  0  0  0
   17.2284    0.4570   14.9908 H   0  0  0  0  0  0  0  0  0  0  0  0
   16.5413   -0.9552   17.0864 H   0  0  0  0  0  0  0  0  0  0  0  0
   17.4885   -2.2352   17.7435 H   0  0  0  0  0  0  0  0  0  0  0  0
   11.7264   -2.0325   14.1596 H   0  0  0  0  0  0  0  0  0  0  0  0
   13.5498    3.2622   13.4992 H   0  0  0  0  0  0  0  0  0  0  0  0
   14.7067    2.3389   15.6880 H   0  0  0  0  0  0  0  0  0  0  0  0
   14.3585   -0.4152   17.0559 H   0  0  0  0  0  0  0  0  0  0  0  0
  1  2  1  0
  2  3  1  0
  3  4  1  0
  4  5  1  0
  5  6  1  0
  6  7  1  0
  7  8  1  0
  8  9  2  0
  8 10  1  0
 10 11  1  0
  7 12  1  0
  2 13  1  0
 13 14  2  0
 13 15  1  0
 15 16  2  0
 16 17  1  0
 17 18  1  0
 18 19  1  0
 19 20  2  0
 20 21  1  0
 21 22  1  0
 12  4  1  0
 22 15  1  0
 21 17  2  0
  1 23  1  0
  1 24  1  0
  1 25  1  0
  3 26  1  0
  3 27  1  0
  4 28  1  0
  5 29  1  0
  5 30  1  0
  6 31  1  0
  6 32  1  0
 10 33  1  0
 10 34  1  0
 11 35  1  0
 12 36  1  0
 12 37  1  0
 16 38  1  0
 19 39  1  0
 20 40  1  0
 22 41  1  0
M  END
>  <Energy>  (56) 
141.84268934422764

>  <compound_id>  (56) 
53441

>  <target_id>  (56) 
1

>  <reference_id>  (56) 
97

>  <inspiration_ids>  (56) 
[124, 97]

>  <energy_score>  (56) 
78.99229471573096

>  <distance_score>  (56) 
2.4978596703187637

>  <path>  (56) 
/opt/xchem-fragalysis-2/maxwin/BulkDock/SCRATCH/511024/C53441-P97/C53441-P97.minimised.mol

>  <scratch_subdir>  (56) 
/opt/xchem-fragalysis-2/maxwin/BulkDock/SCRATCH/511024/C53441-P97

>  <fragmenstein_runtime>  (56) 
2.837918996810913

>  <fragmenstein_outcome>  (56) 
too moved

>  <fragmenstein_mode>  (56) 
expansion

>  <fragmenstein_error>  (56) 


$$$$
C53442-P124
     RDKit          3D

 44 46  0  0  0  0  0  0  0  0999 V2000
   16.9591   -4.0191   17.7753 O   0  0  0  0  0  0  0  0  0  0  0  0
   16.6512   -3.7118   16.6977 C   0  0  0  0  0  0  0  0  0  0  0  0
   17.4498   -3.7359   15.3923 N   0  0  0  0  0  0  0  0  0  0  0  0
   18.8134   -4.0500   15.1502 C   0  0  0  0  0  0  0  0  0  0  0  0
   19.6511   -2.8198   15.4757 C   0  0  0  0  0  0  0  0  0  0  0  0
   19.0906   -1.4335   15.0272 C   0  0  0  0  0  0  0  0  0  0  0  0
   20.0178   -0.3541   15.5583 C   0  0  0  0  0  0  0  0  0  0  0  0
   19.4859    0.7891   14.7776 C   0  0  0  0  0  0  0  0  0  0  0  0
   18.5489    0.0480   13.8655 C   0  0  0  0  0  0  0  0  0  0  0  0
   19.0011   -1.3477   13.5026 N   0  0  0  0  0  0  0  0  0  0  0  0
   18.0384   -2.0011   12.5327 C   0  0  0  0  0  0  0  0  0  0  0  0
   17.0869   -2.6629   12.7344 O   0  0  0  0  0  0  0  0  0  0  0  0
   18.5380   -1.7165   11.1047 C   0  0  0  0  0  0  0  0  0  0  0  0
   17.5501   -2.0336   10.1263 O   0  0  0  0  0  0  0  0  0  0  0  0
   15.3819   -3.1114   16.3911 C   0  0  0  0  0  0  0  0  0  0  0  0
   15.1431   -2.0072   15.5942 C   0  0  0  0  0  0  0  0  0  0  0  0
   13.7716   -1.9819   15.3075 C   0  0  0  0  0  0  0  0  0  0  0  0
   13.0004   -1.2171   14.4340 C   0  0  0  0  0  0  0  0  0  0  0  0
   11.6546   -1.5288   14.3192 C   0  0  0  0  0  0  0  0  0  0  0  0
   11.0889   -2.5867   15.0267 C   0  0  0  0  0  0  0  0  0  0  0  0
   11.8435   -3.3476   15.9147 C   0  0  0  0  0  0  0  0  0  0  0  0
   13.1818   -3.0011   16.0502 C   0  0  0  0  0  0  0  0  0  0  0  0
   14.1652   -3.5496   16.8342 N   0  0  0  0  0  0  0  0  0  0  0  0
   16.8393   -3.4732   14.6138 H   0  0  0  0  0  0  0  0  0  0  0  0
   18.9200   -4.3402   14.1014 H   0  0  0  0  0  0  0  0  0  0  0  0
   19.1075   -4.8912   15.7848 H   0  0  0  0  0  0  0  0  0  0  0  0
   19.7781   -2.7836   16.5671 H   0  0  0  0  0  0  0  0  0  0  0  0
   20.6547   -2.9677   15.0567 H   0  0  0  0  0  0  0  0  0  0  0  0
   18.0966   -1.3658   15.4956 H   0  0  0  0  0  0  0  0  0  0  0  0
   19.9332   -0.2150   16.6401 H   0  0  0  0  0  0  0  0  0  0  0  0
   21.0669   -0.5478   15.3079 H   0  0  0  0  0  0  0  0  0  0  0  0
   18.9611    1.5306   15.3870 H   0  0  0  0  0  0  0  0  0  0  0  0
   20.2848    1.2954   14.2258 H   0  0  0  0  0  0  0  0  0  0  0  0
   17.4983    0.0582   14.2028 H   0  0  0  0  0  0  0  0  0  0  0  0
   18.4973    0.6010   12.9171 H   0  0  0  0  0  0  0  0  0  0  0  0
   19.4199   -2.3356   10.9158 H   0  0  0  0  0  0  0  0  0  0  0  0
   18.8020   -0.6629   10.9887 H   0  0  0  0  0  0  0  0  0  0  0  0
   16.9753   -2.7058   10.5510 H   0  0  0  0  0  0  0  0  0  0  0  0
   15.8889   -1.3813   15.1295 H   0  0  0  0  0  0  0  0  0  0  0  0
   13.4278   -0.4076   13.8515 H   0  0  0  0  0  0  0  0  0  0  0  0
   11.0467   -0.9059   13.6710 H   0  0  0  0  0  0  0  0  0  0  0  0
   10.0394   -2.8129   14.8711 H   0  0  0  0  0  0  0  0  0  0  0  0
   11.4206   -4.1915   16.4450 H   0  0  0  0  0  0  0  0  0  0  0  0
   14.0284   -4.3283   17.4606 H   0  0  0  0  0  0  0  0  0  0  0  0
  1  2  2  0
  2  3  1  0
  3  4  1  0
  4  5  1  0
  5  6  1  0
  6  7  1  0
  7  8  1  0
  8  9  1  0
  9 10  1  0
 10 11  1  0
 11 12  2  0
 11 13  1  0
 13 14  1  0
  2 15  1  0
 15 16  2  0
 16 17  1  0
 17 18  2  0
 18 19  1  0
 19 20  2  0
 20 21  1  0
 21 22  2  0
 22 23  1  0
 10  6  1  0
 23 15  1  0
 22 17  1  0
  3 24  1  0
  4 25  1  0
  4 26  1  0
  5 27  1  0
  5 28  1  0
  6 29  1  0
  7 30  1  0
  7 31  1  0
  8 32  1  0
  8 33  1  0
  9 34  1  0
  9 35  1  0
 13 36  1  0
 13 37  1  0
 14 38  1  0
 16 39  1  0
 18 40  1  0
 19 41  1  0
 20 42  1  0
 21 43  1  0
 23 44  1  0
M  END
>  <Energy>  (57) 
92.002744976160301

>  <compound_id>  (57) 
53442

>  <target_id>  (57) 
1

>  <reference_id>  (57) 
124

>  <inspiration_ids>  (57) 
[124, 97]

>  <energy_score>  (57) 
44.144558841303535

>  <distance_score>  (57) 
2.411867232611118

>  <path>  (57) 
/opt/xchem-fragalysis-2/maxwin/BulkDock/SCRATCH/511024/C53442-P124/C53442-P124.minimised.mol

>  <scratch_subdir>  (57) 
/opt/xchem-fragalysis-2/maxwin/BulkDock/SCRATCH/511024/C53442-P124

>  <fragmenstein_runtime>  (57) 
31.509464502334595

>  <fragmenstein_outcome>  (57) 
too moved

>  <fragmenstein_mode>  (57) 
expansion

>  <fragmenstein_error>  (57) 


$$$$
C53442-P97
     RDKit          3D

 44 46  0  0  0  0  0  0  0  0999 V2000
   17.7320   -1.6927   17.5763 O   0  0  0  0  0  0  0  0  0  0  0  0
   17.1499   -2.4019   16.8148 C   0  0  0  0  0  0  0  0  0  0  0  0
   17.6121   -3.4898   16.0161 N   0  0  0  0  0  0  0  0  0  0  0  0
   18.9366   -4.0104   15.8068 C   0  0  0  0  0  0  0  0  0  0  0  0
   19.2298   -4.3562   14.3473 C   0  0  0  0  0  0  0  0  0  0  0  0
   18.7407   -3.3288   13.2992 C   0  0  0  0  0  0  0  0  0  0  0  0
   19.1678   -1.9093   13.6212 C   0  0  0  0  0  0  0  0  0  0  0  0
   18.8486   -1.2757   12.3103 C   0  0  0  0  0  0  0  0  0  0  0  0
   18.4878   -2.5106   11.5074 C   0  0  0  0  0  0  0  0  0  0  0  0
   19.3109   -3.7071   11.9332 N   0  0  0  0  0  0  0  0  0  0  0  0
   19.0380   -4.8251   11.0837 C   0  0  0  0  0  0  0  0  0  0  0  0
   18.2228   -5.7086   11.1877 O   0  0  0  0  0  0  0  0  0  0  0  0
   19.9064   -4.7465    9.8158 C   0  0  0  0  0  0  0  0  0  0  0  0
   19.1611   -4.2603    8.7064 O   0  0  0  0  0  0  0  0  0  0  0  0
   15.7557   -2.1324   16.5159 C   0  0  0  0  0  0  0  0  0  0  0  0
   15.2142   -0.9460   16.0550 C   0  0  0  0  0  0  0  0  0  0  0  0
   13.8528   -1.1767   15.7358 C   0  0  0  0  0  0  0  0  0  0  0  0
   12.8479   -0.3976   15.1361 C   0  0  0  0  0  0  0  0  0  0  0  0
   11.6021   -0.9760   14.8878 C   0  0  0  0  0  0  0  0  0  0  0  0
   11.3462   -2.2944   15.2546 C   0  0  0  0  0  0  0  0  0  0  0  0
   12.3072   -3.0669   15.9100 C   0  0  0  0  0  0  0  0  0  0  0  0
   13.5627   -2.4876   16.1094 C   0  0  0  0  0  0  0  0  0  0  0  0
   14.7137   -3.0209   16.6415 N   0  0  0  0  0  0  0  0  0  0  0  0
   16.8194   -3.9172   15.5494 H   0  0  0  0  0  0  0  0  0  0  0  0
   19.0436   -4.9023   16.4326 H   0  0  0  0  0  0  0  0  0  0  0  0
   19.6520   -3.2663   16.1737 H   0  0  0  0  0  0  0  0  0  0  0  0
   20.3097   -4.5196   14.2383 H   0  0  0  0  0  0  0  0  0  0  0  0
   18.7597   -5.3219   14.1166 H   0  0  0  0  0  0  0  0  0  0  0  0
   17.6432   -3.4506   13.3146 H   0  0  0  0  0  0  0  0  0  0  0  0
   18.6138   -1.4549   14.4454 H   0  0  0  0  0  0  0  0  0  0  0  0
   20.2396   -1.8441   13.8395 H   0  0  0  0  0  0  0  0  0  0  0  0
   18.0165   -0.5672   12.3571 H   0  0  0  0  0  0  0  0  0  0  0  0
   19.7235   -0.7616   11.8989 H   0  0  0  0  0  0  0  0  0  0  0  0
   17.4077   -2.7358   11.4746 H   0  0  0  0  0  0  0  0  0  0  0  0
   18.7375   -2.3092   10.4571 H   0  0  0  0  0  0  0  0  0  0  0  0
   20.7660   -4.0879    9.9729 H   0  0  0  0  0  0  0  0  0  0  0  0
   20.2864   -5.7466    9.5849 H   0  0  0  0  0  0  0  0  0  0  0  0
   18.3460   -4.8122    8.6579 H   0  0  0  0  0  0  0  0  0  0  0  0
   15.7725   -0.0342   15.8835 H   0  0  0  0  0  0  0  0  0  0  0  0
   13.0460    0.6239   14.8270 H   0  0  0  0  0  0  0  0  0  0  0  0
   10.8305   -0.4030   14.3756 H   0  0  0  0  0  0  0  0  0  0  0  0
   10.3820   -2.7298   15.0040 H   0  0  0  0  0  0  0  0  0  0  0  0
   12.0901   -4.0869   16.2099 H   0  0  0  0  0  0  0  0  0  0  0  0
   14.7919   -3.9590   17.0075 H   0  0  0  0  0  0  0  0  0  0  0  0
  1  2  2  0
  2  3  1  0
  3  4  1  0
  4  5  1  0
  5  6  1  0
  6  7  1  0
  7  8  1  0
  8  9  1  0
  9 10  1  0
 10 11  1  0
 11 12  2  0
 11 13  1  0
 13 14  1  0
  2 15  1  0
 15 16  2  0
 16 17  1  0
 17 18  2  0
 18 19  1  0
 19 20  2  0
 20 21  1  0
 21 22  2  0
 22 23  1  0
 10  6  1  0
 23 15  1  0
 22 17  1  0
  3 24  1  0
  4 25  1  0
  4 26  1  0
  5 27  1  0
  5 28  1  0
  6 29  1  0
  7 30  1  0
  7 31  1  0
  8 32  1  0
  8 33  1  0
  9 34  1  0
  9 35  1  0
 13 36  1  0
 13 37  1  0
 14 38  1  0
 16 39  1  0
 18 40  1  0
 19 41  1  0
 20 42  1  0
 21 43  1  0
 23 44  1  0
M  END
>  <Energy>  (58) 
76.530783601471754

>  <compound_id>  (58) 
53442

>  <target_id>  (58) 
1

>  <reference_id>  (58) 
97

>  <inspiration_ids>  (58) 
[124, 97]

>  <energy_score>  (58) 
34.41584792092959

>  <distance_score>  (58) 
2.339597910723247

>  <path>  (58) 
/opt/xchem-fragalysis-2/maxwin/BulkDock/SCRATCH/511024/C53442-P97/C53442-P97.minimised.mol

>  <scratch_subdir>  (58) 
/opt/xchem-fragalysis-2/maxwin/BulkDock/SCRATCH/511024/C53442-P97

>  <fragmenstein_runtime>  (58) 
33.3479061126709

>  <fragmenstein_outcome>  (58) 
too moved

>  <fragmenstein_mode>  (58) 
expansion

>  <fragmenstein_error>  (58) 


$$$$
C53443-P124
     RDKit          3D

 41 43  0  0  0  0  0  0  0  0999 V2000
   16.1178   -4.7738   16.8681 O   0  0  0  0  0  0  0  0  0  0  0  0
   16.1285   -3.6403   16.6139 C   0  0  0  0  0  0  0  0  0  0  0  0
   17.1658   -2.5601   16.9362 N   0  0  0  0  0  0  0  0  0  0  0  0
   18.3554   -2.6235   17.7149 C   0  0  0  0  0  0  0  0  0  0  0  0
   17.9488   -2.7574   19.1714 C   0  0  0  0  0  0  0  0  0  0  0  0
   17.1795   -1.5162   19.7334 C   0  0  0  0  0  0  0  0  0  0  0  0
   15.6626   -1.6377   19.7538 C   0  0  0  0  0  0  0  0  0  0  0  0
   15.4784   -2.0165   21.1769 C   0  0  0  0  0  0  0  0  0  0  0  0
   16.9240   -2.0141   21.6102 C   0  0  0  0  0  0  0  0  0  0  0  0
   17.7114   -0.8695   21.0094 N   0  0  0  0  0  0  0  0  0  0  0  0
   19.1292   -0.8132   21.5798 C   0  0  0  0  0  0  0  0  0  0  0  0
   20.1220   -1.3246   21.2050 O   0  0  0  0  0  0  0  0  0  0  0  0
   19.0556    0.0882   22.8301 C   0  0  0  0  0  0  0  0  0  0  0  0
   18.0474    1.0875   22.7681 O   0  0  0  0  0  0  0  0  0  0  0  0
   15.0005   -3.0009   15.9726 C   0  0  0  0  0  0  0  0  0  0  0  0
   13.6549   -3.2977   16.1318 C   0  0  0  0  0  0  0  0  0  0  0  0
   12.9676   -2.4263   15.2527 C   0  0  0  0  0  0  0  0  0  0  0  0
   11.3775   -2.1167   14.7195 S   0  0  0  0  0  0  0  0  0  0  0  0
   11.9631   -0.7885   13.7884 C   0  0  0  0  0  0  0  0  0  0  0  0
   13.3272   -0.6331   13.8030 C   0  0  0  0  0  0  0  0  0  0  0  0
   13.8782   -1.6130   14.6542 C   0  0  0  0  0  0  0  0  0  0  0  0
   15.1213   -1.9986   15.0448 N   0  0  0  0  0  0  0  0  0  0  0  0
   16.8984   -1.6945   16.4940 H   0  0  0  0  0  0  0  0  0  0  0  0
   18.9207   -3.5061   17.4007 H   0  0  0  0  0  0  0  0  0  0  0  0
   18.9528   -1.7261   17.5310 H   0  0  0  0  0  0  0  0  0  0  0  0
   18.8701   -2.9195   19.7400 H   0  0  0  0  0  0  0  0  0  0  0  0
   17.3445   -3.6639   19.3091 H   0  0  0  0  0  0  0  0  0  0  0  0
   17.3959   -0.7152   19.0105 H   0  0  0  0  0  0  0  0  0  0  0  0
   15.2629   -2.3795   19.0597 H   0  0  0  0  0  0  0  0  0  0  0  0
   15.1805   -0.6759   19.5451 H   0  0  0  0  0  0  0  0  0  0  0  0
   14.8940   -1.2622   21.7141 H   0  0  0  0  0  0  0  0  0  0  0  0
   15.0062   -2.9929   21.3155 H   0  0  0  0  0  0  0  0  0  0  0  0
   16.9384   -1.8371   22.6955 H   0  0  0  0  0  0  0  0  0  0  0  0
   17.4383   -2.9843   21.5270 H   0  0  0  0  0  0  0  0  0  0  0  0
   18.8727   -0.5442   23.7037 H   0  0  0  0  0  0  0  0  0  0  0  0
   20.0187    0.5926   22.9509 H   0  0  0  0  0  0  0  0  0  0  0  0
   17.3758    0.7308   22.1537 H   0  0  0  0  0  0  0  0  0  0  0  0
   13.2331   -4.0671   16.7657 H   0  0  0  0  0  0  0  0  0  0  0  0
   11.2405   -0.1742   13.2704 H   0  0  0  0  0  0  0  0  0  0  0  0
   13.8642    0.1271   13.2524 H   0  0  0  0  0  0  0  0  0  0  0  0
   15.9690   -1.6164   14.6431 H   0  0  0  0  0  0  0  0  0  0  0  0
  1  2  2  0
  2  3  1  0
  3  4  1  0
  4  5  1  0
  5  6  1  0
  6  7  1  0
  7  8  1  0
  8  9  1  0
  9 10  1  0
 10 11  1  0
 11 12  2  0
 11 13  1  0
 13 14  1  0
  2 15  1  0
 15 16  2  0
 16 17  1  0
 17 18  1  0
 18 19  1  0
 19 20  2  0
 20 21  1  0
 21 22  1  0
 10  6  1  0
 22 15  1  0
 21 17  2  0
  3 23  1  0
  4 24  1  0
  4 25  1  0
  5 26  1  0
  5 27  1  0
  6 28  1  0
  7 29  1  0
  7 30  1  0
  8 31  1  0
  8 32  1  0
  9 33  1  0
  9 34  1  0
 13 35  1  0
 13 36  1  0
 14 37  1  0
 16 38  1  0
 19 39  1  0
 20 40  1  0
 22 41  1  0
M  END
>  <Energy>  (59) 
98.660158934680908

>  <compound_id>  (59) 
53443

>  <target_id>  (59) 
1

>  <reference_id>  (59) 
124

>  <inspiration_ids>  (59) 
[124, 97]

>  <energy_score>  (59) 
56.52541293094055

>  <distance_score>  (59) 
3.9717876847687683

>  <path>  (59) 
/opt/xchem-fragalysis-2/maxwin/BulkDock/SCRATCH/511024/C53443-P124/C53443-P124.minimised.mol

>  <scratch_subdir>  (59) 
/opt/xchem-fragalysis-2/maxwin/BulkDock/SCRATCH/511024/C53443-P124

>  <fragmenstein_runtime>  (59) 
3.518005609512329

>  <fragmenstein_outcome>  (59) 
too moved

>  <fragmenstein_mode>  (59) 
expansion

>  <fragmenstein_error>  (59) 


$$$$
C53443-P97
     RDKit          3D

 41 43  0  0  0  0  0  0  0  0999 V2000
   13.6826   -4.7115   17.4731 O   0  0  0  0  0  0  0  0  0  0  0  0
   14.3248   -3.8399   17.0509 C   0  0  0  0  0  0  0  0  0  0  0  0
   15.7934   -3.4855   17.2874 N   0  0  0  0  0  0  0  0  0  0  0  0
   16.8082   -4.1755   18.0149 C   0  0  0  0  0  0  0  0  0  0  0  0
   18.1532   -3.5025   17.8236 C   0  0  0  0  0  0  0  0  0  0  0  0
   19.0854   -4.0056   16.6820 C   0  0  0  0  0  0  0  0  0  0  0  0
   19.4392   -5.4864   16.6735 C   0  0  0  0  0  0  0  0  0  0  0  0
   18.8984   -5.8474   15.3458 C   0  0  0  0  0  0  0  0  0  0  0  0
   18.1757   -4.5610   15.0531 C   0  0  0  0  0  0  0  0  0  0  0  0
   18.9867   -3.3256   15.3280 N   0  0  0  0  0  0  0  0  0  0  0  0
   18.2409   -2.0722   14.9027 C   0  0  0  0  0  0  0  0  0  0  0  0
   17.5017   -1.3825   15.5082 O   0  0  0  0  0  0  0  0  0  0  0  0
   18.6260   -1.7828   13.4408 C   0  0  0  0  0  0  0  0  0  0  0  0
   18.2755   -0.4632   13.0460 O   0  0  0  0  0  0  0  0  0  0  0  0
   13.7744   -2.8594   16.1323 C   0  0  0  0  0  0  0  0  0  0  0  0
   14.3793   -2.2265   15.0624 C   0  0  0  0  0  0  0  0  0  0  0  0
   13.4606   -1.2720   14.5826 C   0  0  0  0  0  0  0  0  0  0  0  0
   13.4025   -0.0195   13.4060 S   0  0  0  0  0  0  0  0  0  0  0  0
   11.8150    0.3635   13.9180 C   0  0  0  0  0  0  0  0  0  0  0  0
   11.3362   -0.4446   14.9285 C   0  0  0  0  0  0  0  0  0  0  0  0
   12.3198   -1.3906   15.3019 C   0  0  0  0  0  0  0  0  0  0  0  0
   12.4754   -2.4274   16.1868 N   0  0  0  0  0  0  0  0  0  0  0  0
   16.0532   -2.7018   16.6927 H   0  0  0  0  0  0  0  0  0  0  0  0
   16.5090   -4.1322   19.0678 H   0  0  0  0  0  0  0  0  0  0  0  0
   16.7975   -5.2295   17.7247 H   0  0  0  0  0  0  0  0  0  0  0  0
   18.7093   -3.6972   18.7531 H   0  0  0  0  0  0  0  0  0  0  0  0
   18.0503   -2.4120   17.7798 H   0  0  0  0  0  0  0  0  0  0  0  0
   20.0326   -3.5417   17.0093 H   0  0  0  0  0  0  0  0  0  0  0  0
   18.9800   -6.0442   17.4945 H   0  0  0  0  0  0  0  0  0  0  0  0
   20.5211   -5.6547   16.7144 H   0  0  0  0  0  0  0  0  0  0  0  0
   19.7016   -6.0288   14.6235 H   0  0  0  0  0  0  0  0  0  0  0  0
   18.2322   -6.7140   15.3600 H   0  0  0  0  0  0  0  0  0  0  0  0
   17.9977   -4.5398   13.9701 H   0  0  0  0  0  0  0  0  0  0  0  0
   17.1596   -4.5048   15.4584 H   0  0  0  0  0  0  0  0  0  0  0  0
   19.7044   -1.9044   13.3066 H   0  0  0  0  0  0  0  0  0  0  0  0
   18.0955   -2.4832   12.7900 H   0  0  0  0  0  0  0  0  0  0  0  0
   17.5155   -0.2060   13.6043 H   0  0  0  0  0  0  0  0  0  0  0  0
   15.3735   -2.3926   14.6766 H   0  0  0  0  0  0  0  0  0  0  0  0
   11.2853    1.1652   13.4228 H   0  0  0  0  0  0  0  0  0  0  0  0
   10.3399   -0.3616   15.3385 H   0  0  0  0  0  0  0  0  0  0  0  0
   11.7653   -2.7701   16.8167 H   0  0  0  0  0  0  0  0  0  0  0  0
  1  2  2  0
  2  3  1  0
  3  4  1  0
  4  5  1  0
  5  6  1  0
  6  7  1  0
  7  8  1  0
  8  9  1  0
  9 10  1  0
 10 11  1  0
 11 12  2  0
 11 13  1  0
 13 14  1  0
  2 15  1  0
 15 16  2  0
 16 17  1  0
 17 18  1  0
 18 19  1  0
 19 20  2  0
 20 21  1  0
 21 22  1  0
 10  6  1  0
 22 15  1  0
 21 17  2  0
  3 23  1  0
  4 24  1  0
  4 25  1  0
  5 26  1  0
  5 27  1  0
  6 28  1  0
  7 29  1  0
  7 30  1  0
  8 31  1  0
  8 32  1  0
  9 33  1  0
  9 34  1  0
 13 35  1  0
 13 36  1  0
 14 37  1  0
 16 38  1  0
 19 39  1  0
 20 40  1  0
 22 41  1  0
M  END
>  <Energy>  (60) 
95.356732325192269

>  <compound_id>  (60) 
53443

>  <target_id>  (60) 
1

>  <reference_id>  (60) 
97

>  <inspiration_ids>  (60) 
[124, 97]

>  <energy_score>  (60) 
53.22198632144901

>  <distance_score>  (60) 
3.9727845492458007

>  <path>  (60) 
/opt/xchem-fragalysis-2/maxwin/BulkDock/SCRATCH/511024/C53443-P97/C53443-P97.minimised.mol

>  <scratch_subdir>  (60) 
/opt/xchem-fragalysis-2/maxwin/BulkDock/SCRATCH/511024/C53443-P97

>  <fragmenstein_runtime>  (60) 
3.3419790267944336

>  <fragmenstein_outcome>  (60) 
too moved

>  <fragmenstein_mode>  (60) 
expansion

>  <fragmenstein_error>  (60) 


$$$$
C53444-P124
     RDKit          3D

 51 53  0  0  0  0  0  0  0  0999 V2000
   14.0769    2.6034   14.8290 C   0  0  0  0  0  0  0  0  0  0  0  0
   13.4147    3.8136   15.4641 C   0  0  0  0  0  0  0  0  0  0  0  0
   13.7055    3.9075   16.9583 C   0  0  0  0  0  0  0  0  0  0  0  0
   12.8936    3.7193   17.7729 O   0  0  0  0  0  0  0  0  0  0  0  0
   15.1975    4.2854   17.1000 N   0  0  0  0  0  0  0  0  0  0  0  0
   16.0235    4.4171   18.2767 C   0  0  0  0  0  0  0  0  0  0  0  0
   16.8182    3.1357   18.5852 C   0  0  0  0  0  0  0  0  0  0  0  0
   17.9783    3.1434   18.7241 O   0  0  0  0  0  0  0  0  0  0  0  0
   15.7917    1.9826   18.7577 N   0  0  0  0  0  0  0  0  0  0  0  0
   15.9945    0.5837   19.0432 C   0  0  0  0  0  0  0  0  0  0  0  0
   16.0242   -0.3063   17.8005 C   0  0  0  0  0  0  0  0  0  0  0  0
   17.0696    0.0833   16.7583 C   0  0  0  0  0  0  0  0  0  0  0  0
   17.7749   -1.2096   16.3566 C   0  0  0  0  0  0  0  0  0  0  0  0
   17.0753   -2.3048   17.0096 N   0  0  0  0  0  0  0  0  0  0  0  0
   16.2948   -3.1515   16.1193 C   0  0  0  0  0  0  0  0  0  0  0  0
   14.9604   -2.6388   15.6643 C   0  0  0  0  0  0  0  0  0  0  0  0
   14.8967   -1.6266   14.6978 C   0  0  0  0  0  0  0  0  0  0  0  0
   13.6829   -1.1586   14.2332 C   0  0  0  0  0  0  0  0  0  0  0  0
   12.5312   -1.7861   14.6915 C   0  0  0  0  0  0  0  0  0  0  0  0
   11.1881   -1.5413   14.4370 C   0  0  0  0  0  0  0  0  0  0  0  0
   10.4727   -2.5486   15.0216 C   0  0  0  0  0  0  0  0  0  0  0  0
   11.3343   -3.3517   15.7030 N   0  0  0  0  0  0  0  0  0  0  0  0
   12.5995   -2.8414   15.5935 C   0  0  0  0  0  0  0  0  0  0  0  0
   13.7962   -3.2527   16.1582 C   0  0  0  0  0  0  0  0  0  0  0  0
   16.3762   -1.7494   18.1637 C   0  0  0  0  0  0  0  0  0  0  0  0
   13.6957    2.4507   13.8146 H   0  0  0  0  0  0  0  0  0  0  0  0
   13.8861    1.6980   15.4123 H   0  0  0  0  0  0  0  0  0  0  0  0
   15.1623    2.7255   14.7612 H   0  0  0  0  0  0  0  0  0  0  0  0
   13.7353    4.7377   14.9709 H   0  0  0  0  0  0  0  0  0  0  0  0
   12.3278    3.7478   15.3397 H   0  0  0  0  0  0  0  0  0  0  0  0
   15.6338    4.2909   16.1850 H   0  0  0  0  0  0  0  0  0  0  0  0
   15.3875    4.6531   19.1350 H   0  0  0  0  0  0  0  0  0  0  0  0
   16.7227    5.2394   18.1006 H   0  0  0  0  0  0  0  0  0  0  0  0
   14.8692    2.3038   18.4757 H   0  0  0  0  0  0  0  0  0  0  0  0
   16.9418    0.5068   19.5885 H   0  0  0  0  0  0  0  0  0  0  0  0
   15.1884    0.2694   19.7142 H   0  0  0  0  0  0  0  0  0  0  0  0
   15.0373   -0.2711   17.3246 H   0  0  0  0  0  0  0  0  0  0  0  0
   17.8062    0.7901   17.1541 H   0  0  0  0  0  0  0  0  0  0  0  0
   16.5900    0.5606   15.8972 H   0  0  0  0  0  0  0  0  0  0  0  0
   17.8708   -1.3099   15.2704 H   0  0  0  0  0  0  0  0  0  0  0  0
   18.8015   -1.1833   16.7433 H   0  0  0  0  0  0  0  0  0  0  0  0
   16.8898   -3.4297   15.2382 H   0  0  0  0  0  0  0  0  0  0  0  0
   16.1467   -4.1079   16.6388 H   0  0  0  0  0  0  0  0  0  0  0  0
   15.8060   -1.1932   14.2925 H   0  0  0  0  0  0  0  0  0  0  0  0
   13.6309   -0.3505   13.5114 H   0  0  0  0  0  0  0  0  0  0  0  0
   10.8005   -0.7295   13.8355 H   0  0  0  0  0  0  0  0  0  0  0  0
    9.4185   -2.7534   14.9361 H   0  0  0  0  0  0  0  0  0  0  0  0
   11.0883   -4.2105   16.1818 H   0  0  0  0  0  0  0  0  0  0  0  0
   13.8343   -4.0694   16.8689 H   0  0  0  0  0  0  0  0  0  0  0  0
   15.4985   -2.3269   18.4745 H   0  0  0  0  0  0  0  0  0  0  0  0
   17.0709   -1.7705   19.0131 H   0  0  0  0  0  0  0  0  0  0  0  0
  1  2  1  0
  2  3  1  0
  3  4  2  0
  3  5  1  0
  5  6  1  0
  6  7  1  0
  7  8  2  0
  7  9  1  0
  9 10  1  0
 10 11  1  0
 11 12  1  0
 12 13  1  0
 13 14  1  0
 14 15  1  0
 15 16  1  0
 16 17  2  0
 17 18  1  0
 18 19  2  0
 19 20  1  0
 20 21  2  0
 21 22  1  0
 22 23  1  0
 23 24  2  0
 14 25  1  0
 25 11  1  0
 24 16  1  0
 23 19  1  0
  1 26  1  0
  1 27  1  0
  1 28  1  0
  2 29  1  0
  2 30  1  0
  5 31  1  0
  6 32  1  0
  6 33  1  0
  9 34  1  0
 10 35  1  0
 10 36  1  0
 11 37  1  0
 12 38  1  0
 12 39  1  0
 13 40  1  0
 13 41  1  0
 15 42  1  0
 15 43  1  0
 17 44  1  0
 18 45  1  0
 20 46  1  0
 21 47  1  0
 22 48  1  0
 24 49  1  0
 25 50  1  0
 25 51  1  0
M  END
>  <Energy>  (61) 
55.258602421819731

>  <compound_id>  (61) 
53444

>  <target_id>  (61) 
1

>  <reference_id>  (61) 
124

>  <inspiration_ids>  (61) 
[124, 97]

>  <energy_score>  (61) 
-6.907051628196683

>  <distance_score>  (61) 
4.0742584115176985

>  <path>  (61) 
/opt/xchem-fragalysis-2/maxwin/BulkDock/SCRATCH/511024/C53444-P124/C53444-P124.minimised.mol

>  <scratch_subdir>  (61) 
/opt/xchem-fragalysis-2/maxwin/BulkDock/SCRATCH/511024/C53444-P124

>  <fragmenstein_runtime>  (61) 
8.749114513397217

>  <fragmenstein_outcome>  (61) 
too moved

>  <fragmenstein_mode>  (61) 
expansion

>  <fragmenstein_error>  (61) 


$$$$
C53444-P97
     RDKit          3D

 51 53  0  0  0  0  0  0  0  0999 V2000
   19.4725   -1.5464   13.4037 C   0  0  0  0  0  0  0  0  0  0  0  0
   20.0292   -0.5619   14.4163 C   0  0  0  0  0  0  0  0  0  0  0  0
   20.0985   -1.1545   15.8224 C   0  0  0  0  0  0  0  0  0  0  0  0
   19.3151   -0.7927   16.6501 O   0  0  0  0  0  0  0  0  0  0  0  0
   21.1810   -2.0832   15.9054 N   0  0  0  0  0  0  0  0  0  0  0  0
   21.6104   -2.9451   16.9832 C   0  0  0  0  0  0  0  0  0  0  0  0
   20.7641   -4.2318   17.0564 C   0  0  0  0  0  0  0  0  0  0  0  0
   21.2972   -5.2940   16.9097 O   0  0  0  0  0  0  0  0  0  0  0  0
   19.3943   -3.9001   17.3339 N   0  0  0  0  0  0  0  0  0  0  0  0
   18.2563   -4.7403   17.6155 C   0  0  0  0  0  0  0  0  0  0  0  0
   16.9042   -4.0784   17.3783 C   0  0  0  0  0  0  0  0  0  0  0  0
   16.6044   -2.8738   18.2711 C   0  0  0  0  0  0  0  0  0  0  0  0
   15.9104   -1.8729   17.3570 C   0  0  0  0  0  0  0  0  0  0  0  0
   15.5776   -2.6371   16.1488 N   0  0  0  0  0  0  0  0  0  0  0  0
   15.3737   -1.7825   14.9768 C   0  0  0  0  0  0  0  0  0  0  0  0
   14.1554   -0.8961   15.1183 C   0  0  0  0  0  0  0  0  0  0  0  0
   14.3138    0.4366   15.5208 C   0  0  0  0  0  0  0  0  0  0  0  0
   13.2110    1.2711   15.7197 C   0  0  0  0  0  0  0  0  0  0  0  0
   11.9205    0.7632   15.5054 C   0  0  0  0  0  0  0  0  0  0  0  0
   10.6164    1.3159   15.6269 C   0  0  0  0  0  0  0  0  0  0  0  0
    9.7213    0.3328   15.2857 C   0  0  0  0  0  0  0  0  0  0  0  0
   10.4363   -0.7642   14.8833 N   0  0  0  0  0  0  0  0  0  0  0  0
   11.7796   -0.5579   15.0857 C   0  0  0  0  0  0  0  0  0  0  0  0
   12.8695   -1.4136   14.8901 C   0  0  0  0  0  0  0  0  0  0  0  0
   16.7017   -3.5556   15.9634 C   0  0  0  0  0  0  0  0  0  0  0  0
   19.4155   -1.0809   12.4149 H   0  0  0  0  0  0  0  0  0  0  0  0
   18.4660   -1.8691   13.6852 H   0  0  0  0  0  0  0  0  0  0  0  0
   20.0965   -2.4415   13.3213 H   0  0  0  0  0  0  0  0  0  0  0  0
   21.0283   -0.2250   14.1167 H   0  0  0  0  0  0  0  0  0  0  0  0
   19.3936    0.3306   14.4519 H   0  0  0  0  0  0  0  0  0  0  0  0
   21.5811   -2.2071   14.9823 H   0  0  0  0  0  0  0  0  0  0  0  0
   21.5189   -2.4048   17.9309 H   0  0  0  0  0  0  0  0  0  0  0  0
   22.6593   -3.2042   16.8130 H   0  0  0  0  0  0  0  0  0  0  0  0
   19.3187   -2.8930   17.4769 H   0  0  0  0  0  0  0  0  0  0  0  0
   18.3559   -5.6420   17.0009 H   0  0  0  0  0  0  0  0  0  0  0  0
   18.3456   -5.0541   18.6613 H   0  0  0  0  0  0  0  0  0  0  0  0
   16.1319   -4.8361   17.5787 H   0  0  0  0  0  0  0  0  0  0  0  0
   17.5026   -2.4316   18.7138 H   0  0  0  0  0  0  0  0  0  0  0  0
   15.9466   -3.1755   19.0945 H   0  0  0  0  0  0  0  0  0  0  0  0
   15.0176   -1.4607   17.8387 H   0  0  0  0  0  0  0  0  0  0  0  0
   16.5997   -1.0471   17.1420 H   0  0  0  0  0  0  0  0  0  0  0  0
   16.2594   -1.1653   14.7733 H   0  0  0  0  0  0  0  0  0  0  0  0
   15.2359   -2.4009   14.0811 H   0  0  0  0  0  0  0  0  0  0  0  0
   15.3098    0.8346   15.7041 H   0  0  0  0  0  0  0  0  0  0  0  0
   13.3539    2.2974   16.0424 H   0  0  0  0  0  0  0  0  0  0  0  0
   10.3649    2.3232   15.9282 H   0  0  0  0  0  0  0  0  0  0  0  0
    8.6446    0.3294   15.2080 H   0  0  0  0  0  0  0  0  0  0  0  0
   10.0390   -1.5491   14.3746 H   0  0  0  0  0  0  0  0  0  0  0  0
   12.7236   -2.4423   14.5780 H   0  0  0  0  0  0  0  0  0  0  0  0
   16.4572   -4.3663   15.2706 H   0  0  0  0  0  0  0  0  0  0  0  0
   17.5908   -3.0344   15.5925 H   0  0  0  0  0  0  0  0  0  0  0  0
  1  2  1  0
  2  3  1  0
  3  4  2  0
  3  5  1  0
  5  6  1  0
  6  7  1  0
  7  8  2  0
  7  9  1  0
  9 10  1  0
 10 11  1  0
 11 12  1  0
 12 13  1  0
 13 14  1  0
 14 15  1  0
 15 16  1  0
 16 17  2  0
 17 18  1  0
 18 19  2  0
 19 20  1  0
 20 21  2  0
 21 22  1  0
 22 23  1  0
 23 24  2  0
 14 25  1  0
 25 11  1  0
 24 16  1  0
 23 19  1  0
  1 26  1  0
  1 27  1  0
  1 28  1  0
  2 29  1  0
  2 30  1  0
  5 31  1  0
  6 32  1  0
  6 33  1  0
  9 34  1  0
 10 35  1  0
 10 36  1  0
 11 37  1  0
 12 38  1  0
 12 39  1  0
 13 40  1  0
 13 41  1  0
 15 42  1  0
 15 43  1  0
 17 44  1  0
 18 45  1  0
 20 46  1  0
 21 47  1  0
 22 48  1  0
 24 49  1  0
 25 50  1  0
 25 51  1  0
M  END
>  <Energy>  (62) 
25.46383624300065

>  <compound_id>  (62) 
53444

>  <target_id>  (62) 
1

>  <reference_id>  (62) 
97

>  <inspiration_ids>  (62) 
[124, 97]

>  <energy_score>  (62) 
-37.80644699457406

>  <distance_score>  (62) 
4.175618749781454

>  <path>  (62) 
/opt/xchem-fragalysis-2/maxwin/BulkDock/SCRATCH/511024/C53444-P97/C53444-P97.minimised.mol

>  <scratch_subdir>  (62) 
/opt/xchem-fragalysis-2/maxwin/BulkDock/SCRATCH/511024/C53444-P97

>  <fragmenstein_runtime>  (62) 
11.049709558486938

>  <fragmenstein_outcome>  (62) 
too moved

>  <fragmenstein_mode>  (62) 
expansion

>  <fragmenstein_error>  (62) 


$$$$
C24746-P124
     RDKit          3D

 37 39  0  0  0  0  0  0  0  0999 V2000
   16.5030    1.0948   18.3429 C   0  0  0  0  0  0  0  0  0  0  0  0
   16.1497   -0.4840   17.6088 S   0  0  0  0  0  0  0  0  0  0  0  0
   15.3667   -1.1582   18.6285 O   0  0  0  0  0  0  0  0  0  0  0  0
   15.6334   -0.1235   16.2140 N   0  0  0  0  0  0  0  0  0  0  0  0
   15.3452   -1.0429   15.2006 C   0  0  0  0  0  0  0  0  0  0  0  0
   16.1362   -1.2973   14.2981 O   0  0  0  0  0  0  0  0  0  0  0  0
   14.0316   -1.6720   15.0973 C   0  0  0  0  0  0  0  0  0  0  0  0
   13.1654   -1.1038   14.1629 C   0  0  0  0  0  0  0  0  0  0  0  0
   11.8603   -1.5454   14.0833 C   0  0  0  0  0  0  0  0  0  0  0  0
   11.3927   -2.5956   14.8687 C   0  0  0  0  0  0  0  0  0  0  0  0
   12.2770   -3.1405   15.7947 C   0  0  0  0  0  0  0  0  0  0  0  0
   12.0836   -4.1406   16.7060 N   0  0  0  0  0  0  0  0  0  0  0  0
   13.1118   -4.1389   17.6000 C   0  0  0  0  0  0  0  0  0  0  0  0
   14.1293   -3.4189   17.0414 C   0  0  0  0  0  0  0  0  0  0  0  0
   13.5904   -2.6953   15.9523 C   0  0  0  0  0  0  0  0  0  0  0  0
   17.7760   -1.2400   17.5585 C   0  0  0  0  0  0  0  0  0  0  0  0
   18.5656   -1.0329   16.2664 C   0  0  0  0  0  0  0  0  0  0  0  0
   18.5749   -2.3979   15.5696 C   0  0  0  0  0  0  0  0  0  0  0  0
   17.6484   -3.2341   16.3317 N   0  0  0  0  0  0  0  0  0  0  0  0
   17.7362   -2.7505   17.7033 C   0  0  0  0  0  0  0  0  0  0  0  0
   16.9431    0.9366   19.3299 H   0  0  0  0  0  0  0  0  0  0  0  0
   17.1974    1.6434   17.7031 H   0  0  0  0  0  0  0  0  0  0  0  0
   15.5663    1.6476   18.4474 H   0  0  0  0  0  0  0  0  0  0  0  0
   13.4933   -0.2738   13.5409 H   0  0  0  0  0  0  0  0  0  0  0  0
   11.1920   -1.0162   13.4167 H   0  0  0  0  0  0  0  0  0  0  0  0
   10.3666   -2.9323   14.7847 H   0  0  0  0  0  0  0  0  0  0  0  0
   11.2261   -4.6663   16.8034 H   0  0  0  0  0  0  0  0  0  0  0  0
   13.0397   -4.6668   18.5389 H   0  0  0  0  0  0  0  0  0  0  0  0
   15.1076   -3.3231   17.4673 H   0  0  0  0  0  0  0  0  0  0  0  0
   18.3219   -0.8122   18.4076 H   0  0  0  0  0  0  0  0  0  0  0  0
   18.1724   -0.2397   15.6265 H   0  0  0  0  0  0  0  0  0  0  0  0
   19.5988   -0.7549   16.5096 H   0  0  0  0  0  0  0  0  0  0  0  0
   19.5839   -2.8255   15.6211 H   0  0  0  0  0  0  0  0  0  0  0  0
   18.3067   -2.3400   14.5125 H   0  0  0  0  0  0  0  0  0  0  0  0
   17.9025   -4.2177   16.2523 H   0  0  0  0  0  0  0  0  0  0  0  0
   16.9426   -3.1299   18.3468 H   0  0  0  0  0  0  0  0  0  0  0  0
   18.6810   -3.1008   18.1405 H   0  0  0  0  0  0  0  0  0  0  0  0
  1  2  1  0
  2  3  2  0
  2  4  2  0
  4  5  1  0
  5  6  2  0
  5  7  1  0
  7  8  2  0
  8  9  1  0
  9 10  2  0
 10 11  1  0
 11 12  1  0
 12 13  1  0
 13 14  2  0
 14 15  1  0
  2 16  1  0
 16 17  1  0
 17 18  1  0
 18 19  1  0
 19 20  1  0
 15  7  1  0
 20 16  1  0
 15 11  2  0
  1 21  1  0
  1 22  1  0
  1 23  1  0
  8 24  1  0
  9 25  1  0
 10 26  1  0
 12 27  1  0
 13 28  1  0
 14 29  1  0
 16 30  1  0
 17 31  1  0
 17 32  1  0
 18 33  1  0
 18 34  1  0
 19 35  1  0
 20 36  1  0
 20 37  1  0
M  END
>  <Energy>  (63) 
18.244948104433103

>  <compound_id>  (63) 
24746

>  <target_id>  (63) 
1

>  <reference_id>  (63) 
124

>  <inspiration_ids>  (63) 
[124, 97]

>  <energy_score>  (63) 
-18.33955899444581

>  <distance_score>  (63) 
1.7954920785743984

>  <path>  (63) 
/opt/xchem-fragalysis-2/maxwin/BulkDock/SCRATCH/511024/C24746-P124/C24746-P124.minimised.mol

>  <scratch_subdir>  (63) 
/opt/xchem-fragalysis-2/maxwin/BulkDock/SCRATCH/511024/C24746-P124

>  <fragmenstein_runtime>  (63) 
8.344132900238037

>  <fragmenstein_outcome>  (63) 
too moved

>  <fragmenstein_mode>  (63) 
expansion

>  <fragmenstein_error>  (63) 


$$$$
C24746-P97
     RDKit          3D

 37 39  0  0  0  0  0  0  0  0999 V2000
   16.8157    0.9934   18.4452 C   0  0  0  0  0  0  0  0  0  0  0  0
   16.2812   -0.5022   17.6596 S   0  0  0  0  0  0  0  0  0  0  0  0
   15.6256   -1.2526   18.7126 O   0  0  0  0  0  0  0  0  0  0  0  0
   15.5959   -0.0487   16.3670 N   0  0  0  0  0  0  0  0  0  0  0  0
   15.2238   -0.9609   15.3822 C   0  0  0  0  0  0  0  0  0  0  0  0
   15.9604   -1.2521   14.4474 O   0  0  0  0  0  0  0  0  0  0  0  0
   13.8844   -1.5293   15.3623 C   0  0  0  0  0  0  0  0  0  0  0  0
   12.9604   -0.8801   14.5449 C   0  0  0  0  0  0  0  0  0  0  0  0
   11.6749   -1.3663   14.4634 C   0  0  0  0  0  0  0  0  0  0  0  0
   11.3053   -2.5465   15.1083 C   0  0  0  0  0  0  0  0  0  0  0  0
   12.2391   -3.1514   15.9519 C   0  0  0  0  0  0  0  0  0  0  0  0
   12.1318   -4.2713   16.7358 N   0  0  0  0  0  0  0  0  0  0  0  0
   13.2122   -4.3657   17.5603 C   0  0  0  0  0  0  0  0  0  0  0  0
   14.1313   -3.4473   17.1401 C   0  0  0  0  0  0  0  0  0  0  0  0
   13.5259   -2.6478   16.1363 C   0  0  0  0  0  0  0  0  0  0  0  0
   17.8055   -1.3468   17.2961 C   0  0  0  0  0  0  0  0  0  0  0  0
   18.6436   -0.7735   16.1551 C   0  0  0  0  0  0  0  0  0  0  0  0
   18.9578   -1.9684   15.2545 C   0  0  0  0  0  0  0  0  0  0  0  0
   18.7760   -3.1471   16.1076 N   0  0  0  0  0  0  0  0  0  0  0  0
   17.5992   -2.8036   16.9131 C   0  0  0  0  0  0  0  0  0  0  0  0
   15.9336    1.5565   18.7586 H   0  0  0  0  0  0  0  0  0  0  0  0
   17.4151    0.7366   19.3213 H   0  0  0  0  0  0  0  0  0  0  0  0
   17.4093    1.5811   17.7422 H   0  0  0  0  0  0  0  0  0  0  0  0
   13.2435    0.0103   13.9892 H   0  0  0  0  0  0  0  0  0  0  0  0
   10.9592   -0.8113   13.8688 H   0  0  0  0  0  0  0  0  0  0  0  0
   10.3106   -2.9508   14.9666 H   0  0  0  0  0  0  0  0  0  0  0  0
   11.3025   -4.8449   16.7957 H   0  0  0  0  0  0  0  0  0  0  0  0
   13.2390   -5.0499   18.3935 H   0  0  0  0  0  0  0  0  0  0  0  0
   15.0902   -3.3294   17.6105 H   0  0  0  0  0  0  0  0  0  0  0  0
   18.3957   -1.3066   18.2214 H   0  0  0  0  0  0  0  0  0  0  0  0
   18.1611    0.0301   15.5929 H   0  0  0  0  0  0  0  0  0  0  0  0
   19.5744   -0.3632   16.5659 H   0  0  0  0  0  0  0  0  0  0  0  0
   19.9782   -1.9186   14.8616 H   0  0  0  0  0  0  0  0  0  0  0  0
   18.2816   -2.0189   14.3967 H   0  0  0  0  0  0  0  0  0  0  0  0
   19.5877   -3.2450   16.7180 H   0  0  0  0  0  0  0  0  0  0  0  0
   16.7203   -2.9687   16.2910 H   0  0  0  0  0  0  0  0  0  0  0  0
   17.5203   -3.4525   17.7910 H   0  0  0  0  0  0  0  0  0  0  0  0
  1  2  1  0
  2  3  2  0
  2  4  2  0
  4  5  1  0
  5  6  2  0
  5  7  1  0
  7  8  2  0
  8  9  1  0
  9 10  2  0
 10 11  1  0
 11 12  1  0
 12 13  1  0
 13 14  2  0
 14 15  1  0
  2 16  1  0
 16 17  1  0
 17 18  1  0
 18 19  1  0
 19 20  1  0
 15  7  1  0
 20 16  1  0
 15 11  2  0
  1 21  1  0
  1 22  1  0
  1 23  1  0
  8 24  1  0
  9 25  1  0
 10 26  1  0
 12 27  1  0
 13 28  1  0
 14 29  1  0
 16 30  1  0
 17 31  1  0
 17 32  1  0
 18 33  1  0
 18 34  1  0
 19 35  1  0
 20 36  1  0
 20 37  1  0
M  END
>  <Energy>  (64) 
12.458525504182616

>  <compound_id>  (64) 
24746

>  <target_id>  (64) 
1

>  <reference_id>  (64) 
97

>  <inspiration_ids>  (64) 
[124, 97]

>  <energy_score>  (64) 
-24.125981594697635

>  <distance_score>  (64) 
1.7374727996280026

>  <path>  (64) 
/opt/xchem-fragalysis-2/maxwin/BulkDock/SCRATCH/511024/C24746-P97/C24746-P97.minimised.mol

>  <scratch_subdir>  (64) 
/opt/xchem-fragalysis-2/maxwin/BulkDock/SCRATCH/511024/C24746-P97

>  <fragmenstein_runtime>  (64) 
7.373645544052124

>  <fragmenstein_outcome>  (64) 
too moved

>  <fragmenstein_mode>  (64) 
expansion

>  <fragmenstein_error>  (64) 


$$$$
C53446-P124
     RDKit          3D

 49 51  0  0  0  0  0  0  0  0999 V2000
   17.4845   -0.5337   12.5594 C   0  0  0  0  0  0  0  0  0  0  0  0
   18.1112   -1.2594   13.6072 O   0  0  0  0  0  0  0  0  0  0  0  0
   18.4725   -0.4108   14.7153 C   0  0  0  0  0  0  0  0  0  0  0  0
   18.9956   -1.2773   15.8711 C   0  0  0  0  0  0  0  0  0  0  0  0
   20.3903   -1.5820   15.7178 O   0  0  0  0  0  0  0  0  0  0  0  0
   20.6609   -2.5180   14.6844 C   0  0  0  0  0  0  0  0  0  0  0  0
   18.7369   -0.6430   17.2781 C   0  0  0  0  0  0  0  0  0  0  0  0
   19.5638   -0.4214   18.0531 O   0  0  0  0  0  0  0  0  0  0  0  0
   17.1571   -0.5230   17.3358 N   0  0  0  0  0  0  0  0  0  0  0  0
   16.2091    0.2859   18.8426 C   0  0  0  0  0  0  0  0  0  0  0  0
   15.5611   -0.5974   20.0336 C   0  0  0  0  0  0  0  0  0  0  0  0
   16.5231   -1.4742   19.4426 C   0  0  0  0  0  0  0  0  0  0  0  0
   16.3285   -2.9069   19.3275 N   0  0  0  0  0  0  0  0  0  0  0  0
   15.0769   -3.5235   18.8800 C   0  0  0  0  0  0  0  0  0  0  0  0
   14.7504   -3.3671   17.4072 C   0  0  0  0  0  0  0  0  0  0  0  0
   15.7613   -3.2863   16.4489 C   0  0  0  0  0  0  0  0  0  0  0  0
   15.5150   -2.7081   15.2036 C   0  0  0  0  0  0  0  0  0  0  0  0
   14.2222   -2.2646   14.8930 C   0  0  0  0  0  0  0  0  0  0  0  0
   13.6536   -1.5483   13.8097 C   0  0  0  0  0  0  0  0  0  0  0  0
   12.2971   -1.5094   14.0174 C   0  0  0  0  0  0  0  0  0  0  0  0
   12.0156   -2.2687   15.1200 N   0  0  0  0  0  0  0  0  0  0  0  0
   13.1844   -2.6270   15.7483 C   0  0  0  0  0  0  0  0  0  0  0  0
   13.4177   -3.2235   16.9931 C   0  0  0  0  0  0  0  0  0  0  0  0
   16.2791   -0.2604   18.2590 C   0  0  0  0  0  0  0  0  0  0  0  0
   17.2304   -1.2336   11.7590 H   0  0  0  0  0  0  0  0  0  0  0  0
   16.5648   -0.0606   12.9156 H   0  0  0  0  0  0  0  0  0  0  0  0
   18.1664    0.2235   12.1611 H   0  0  0  0  0  0  0  0  0  0  0  0
   19.2521    0.2819   14.3774 H   0  0  0  0  0  0  0  0  0  0  0  0
   17.5916    0.1712   15.0024 H   0  0  0  0  0  0  0  0  0  0  0  0
   18.4658   -2.2357   15.8880 H   0  0  0  0  0  0  0  0  0  0  0  0
   20.5232   -2.0608   13.7015 H   0  0  0  0  0  0  0  0  0  0  0  0
   21.7089   -2.8196   14.7680 H   0  0  0  0  0  0  0  0  0  0  0  0
   20.0374   -3.4115   14.7842 H   0  0  0  0  0  0  0  0  0  0  0  0
   15.6272    1.3595   18.6516 H   0  0  0  0  0  0  0  0  0  0  0  0
   17.1280    0.8626   19.4120 H   0  0  0  0  0  0  0  0  0  0  0  0
   15.7801   -0.2133   21.0313 H   0  0  0  0  0  0  0  0  0  0  0  0
   14.5034   -0.8131   19.8648 H   0  0  0  0  0  0  0  0  0  0  0  0
   17.5224   -1.3362   19.8905 H   0  0  0  0  0  0  0  0  0  0  0  0
   17.1079   -3.3070   18.8083 H   0  0  0  0  0  0  0  0  0  0  0  0
   14.2541   -3.1474   19.4964 H   0  0  0  0  0  0  0  0  0  0  0  0
   15.1429   -4.5973   19.0885 H   0  0  0  0  0  0  0  0  0  0  0  0
   16.7854   -3.5472   16.6962 H   0  0  0  0  0  0  0  0  0  0  0  0
   16.3223   -2.5807   14.4935 H   0  0  0  0  0  0  0  0  0  0  0  0
   14.1792   -1.1119   12.9717 H   0  0  0  0  0  0  0  0  0  0  0  0
   11.5016   -1.0413   13.4580 H   0  0  0  0  0  0  0  0  0  0  0  0
   11.0866   -2.4710   15.4575 H   0  0  0  0  0  0  0  0  0  0  0  0
   12.6007   -3.4652   17.6590 H   0  0  0  0  0  0  0  0  0  0  0  0
   15.6543   -1.1706   17.8031 H   0  0  0  0  0  0  0  0  0  0  0  0
   15.2416    0.0633   17.4645 H   0  0  0  0  0  0  0  0  0  0  0  0
  1  2  1  0
  2  3  1  0
  3  4  1  0
  4  5  1  0
  5  6  1  0
  4  7  1  0
  7  8  2  0
  7  9  1  0
  9 10  1  0
 10 11  1  0
 11 12  1  0
 12 13  1  0
 13 14  1  0
 14 15  1  0
 15 16  2  0
 16 17  1  0
 17 18  2  0
 18 19  1  0
 19 20  2  0
 20 21  1  0
 21 22  1  0
 22 23  2  0
 12 24  1  0
 24  9  1  0
 23 15  1  0
 22 18  1  0
  1 25  1  0
  1 26  1  0
  1 27  1  0
  3 28  1  0
  3 29  1  0
  4 30  1  0
  6 31  1  0
  6 32  1  0
  6 33  1  0
 10 34  1  0
 10 35  1  0
 11 36  1  0
 11 37  1  0
 12 38  1  0
 13 39  1  0
 14 40  1  0
 14 41  1  0
 16 42  1  0
 17 43  1  0
 19 44  1  0
 20 45  1  0
 21 46  1  0
 23 47  1  0
 24 48  1  0
 24 49  1  0
M  END
>  <Energy>  (65) 
854.10246879399858

>  <compound_id>  (65) 
53446

>  <target_id>  (65) 
1

>  <reference_id>  (65) 
124

>  <inspiration_ids>  (65) 
[124, 97]

>  <energy_score>  (65) 
713.7103111779003

>  <distance_score>  (65) 
2.8322390759731597

>  <path>  (65) 
/opt/xchem-fragalysis-2/maxwin/BulkDock/SCRATCH/511024/C53446-P124/C53446-P124.minimised.mol

>  <scratch_subdir>  (65) 
/opt/xchem-fragalysis-2/maxwin/BulkDock/SCRATCH/511024/C53446-P124

>  <fragmenstein_runtime>  (65) 
7.925616979598999

>  <fragmenstein_outcome>  (65) 
too moved

>  <fragmenstein_mode>  (65) 
expansion

>  <fragmenstein_error>  (65) 


$$$$
C53446-P97
     RDKit          3D

 49 51  0  0  0  0  0  0  0  0999 V2000
   16.0554   -2.0040   13.5445 C   0  0  0  0  0  0  0  0  0  0  0  0
   16.7043   -2.8532   14.4833 O   0  0  0  0  0  0  0  0  0  0  0  0
   18.1248   -2.8375   14.3092 C   0  0  0  0  0  0  0  0  0  0  0  0
   18.8712   -3.8784   15.1707 C   0  0  0  0  0  0  0  0  0  0  0  0
   18.4472   -5.2138   14.8853 O   0  0  0  0  0  0  0  0  0  0  0  0
   17.3520   -5.6537   15.6735 C   0  0  0  0  0  0  0  0  0  0  0  0
   19.1144   -3.5362   16.6777 C   0  0  0  0  0  0  0  0  0  0  0  0
   19.9508   -4.1392   17.2852 O   0  0  0  0  0  0  0  0  0  0  0  0
   18.1827   -2.5213   17.1055 N   0  0  0  0  0  0  0  0  0  0  0  0
   18.0502   -1.5556   18.8404 C   0  0  0  0  0  0  0  0  0  0  0  0
   17.1255   -2.1176   20.0510 C   0  0  0  0  0  0  0  0  0  0  0  0
   16.4455   -2.7599   18.9521 C   0  0  0  0  0  0  0  0  0  0  0  0
   15.1559   -2.1436   18.6979 N   0  0  0  0  0  0  0  0  0  0  0  0
   14.5827   -2.5952   17.4199 C   0  0  0  0  0  0  0  0  0  0  0  0
   13.8914   -1.4523   16.7066 C   0  0  0  0  0  0  0  0  0  0  0  0
   14.4141   -0.1548   16.8188 C   0  0  0  0  0  0  0  0  0  0  0  0
   13.8450    0.9270   16.1546 C   0  0  0  0  0  0  0  0  0  0  0  0
   12.7331    0.7078   15.3331 C   0  0  0  0  0  0  0  0  0  0  0  0
   11.9376    1.5675   14.5345 C   0  0  0  0  0  0  0  0  0  0  0  0
   10.9763    0.7952   13.9356 C   0  0  0  0  0  0  0  0  0  0  0  0
   11.1725   -0.5066   14.3225 N   0  0  0  0  0  0  0  0  0  0  0  0
   12.2284   -0.5872   15.2010 C   0  0  0  0  0  0  0  0  0  0  0  0
   12.7851   -1.6883   15.8700 C   0  0  0  0  0  0  0  0  0  0  0  0
   17.8978   -2.0796   18.2723 C   0  0  0  0  0  0  0  0  0  0  0  0
   14.9776   -2.0613   13.7114 H   0  0  0  0  0  0  0  0  0  0  0  0
   16.3761   -0.9672   13.6838 H   0  0  0  0  0  0  0  0  0  0  0  0
   16.2636   -2.3299   12.5209 H   0  0  0  0  0  0  0  0  0  0  0  0
   18.3322   -3.0691   13.2565 H   0  0  0  0  0  0  0  0  0  0  0  0
   18.4992   -1.8285   14.5187 H   0  0  0  0  0  0  0  0  0  0  0  0
   19.8956   -3.8407   14.7697 H   0  0  0  0  0  0  0  0  0  0  0  0
   17.0538   -6.6423   15.3131 H   0  0  0  0  0  0  0  0  0  0  0  0
   17.6457   -5.7579   16.7220 H   0  0  0  0  0  0  0  0  0  0  0  0
   16.4910   -4.9887   15.5929 H   0  0  0  0  0  0  0  0  0  0  0  0
   17.8293   -0.3468   18.6880 H   0  0  0  0  0  0  0  0  0  0  0  0
   19.1852   -1.4114   19.3041 H   0  0  0  0  0  0  0  0  0  0  0  0
   16.6250   -1.3083   20.5898 H   0  0  0  0  0  0  0  0  0  0  0  0
   17.6684   -2.7930   20.7206 H   0  0  0  0  0  0  0  0  0  0  0  0
   16.4392   -3.8568   18.9617 H   0  0  0  0  0  0  0  0  0  0  0  0
   14.5019   -2.3778   19.4465 H   0  0  0  0  0  0  0  0  0  0  0  0
   15.3429   -2.9979   16.7433 H   0  0  0  0  0  0  0  0  0  0  0  0
   13.8691   -3.4034   17.6208 H   0  0  0  0  0  0  0  0  0  0  0  0
   15.2894    0.0315   17.4367 H   0  0  0  0  0  0  0  0  0  0  0  0
   14.2671    1.9209   16.2652 H   0  0  0  0  0  0  0  0  0  0  0  0
   12.0577    2.6358   14.4143 H   0  0  0  0  0  0  0  0  0  0  0  0
   10.1732    1.0474   13.2591 H   0  0  0  0  0  0  0  0  0  0  0  0
   10.6148   -1.2853   13.9813 H   0  0  0  0  0  0  0  0  0  0  0  0
   12.3863   -2.6888   15.7333 H   0  0  0  0  0  0  0  0  0  0  0  0
   18.3497   -3.2298   18.5977 H   0  0  0  0  0  0  0  0  0  0  0  0
   17.0693   -1.5933   17.4343 H   0  0  0  0  0  0  0  0  0  0  0  0
  1  2  1  0
  2  3  1  0
  3  4  1  0
  4  5  1  0
  5  6  1  0
  4  7  1  0
  7  8  2  0
  7  9  1  0
  9 10  1  0
 10 11  1  0
 11 12  1  0
 12 13  1  0
 13 14  1  0
 14 15  1  0
 15 16  2  0
 16 17  1  0
 17 18  2  0
 18 19  1  0
 19 20  2  0
 20 21  1  0
 21 22  1  0
 22 23  2  0
 12 24  1  0
 24  9  1  0
 23 15  1  0
 22 18  1  0
  1 25  1  0
  1 26  1  0
  1 27  1  0
  3 28  1  0
  3 29  1  0
  4 30  1  0
  6 31  1  0
  6 32  1  0
  6 33  1  0
 10 34  1  0
 10 35  1  0
 11 36  1  0
 11 37  1  0
 12 38  1  0
 13 39  1  0
 14 40  1  0
 14 41  1  0
 16 42  1  0
 17 43  1  0
 19 44  1  0
 20 45  1  0
 21 46  1  0
 23 47  1  0
 24 48  1  0
 24 49  1  0
M  END
>  <Energy>  (66) 
904.13806005254776

>  <compound_id>  (66) 
53446

>  <target_id>  (66) 
1

>  <reference_id>  (66) 
97

>  <inspiration_ids>  (66) 
[124, 97]

>  <energy_score>  (66) 
763.7459024364526

>  <distance_score>  (66) 
3.133013476726231

>  <path>  (66) 
/opt/xchem-fragalysis-2/maxwin/BulkDock/SCRATCH/511024/C53446-P97/C53446-P97.minimised.mol

>  <scratch_subdir>  (66) 
/opt/xchem-fragalysis-2/maxwin/BulkDock/SCRATCH/511024/C53446-P97

>  <fragmenstein_runtime>  (66) 
8.194329261779785

>  <fragmenstein_outcome>  (66) 
too moved

>  <fragmenstein_mode>  (66) 
expansion

>  <fragmenstein_error>  (66) 


$$$$
C53447-P124
     RDKit          3D

 48 50  0  0  0  0  0  0  0  0999 V2000
   20.3939    0.4676   15.4159 C   0  0  0  0  0  0  0  0  0  0  0  0
   19.3847    0.6220   16.4063 O   0  0  0  0  0  0  0  0  0  0  0  0
   19.7712    0.0102   17.6492 C   0  0  0  0  0  0  0  0  0  0  0  0
   18.6611    0.2249   18.6912 C   0  0  0  0  0  0  0  0  0  0  0  0
   18.7895    1.4914   19.3572 O   0  0  0  0  0  0  0  0  0  0  0  0
   18.4604    2.5971   18.5268 C   0  0  0  0  0  0  0  0  0  0  0  0
   18.7236   -0.9064   19.7542 C   0  0  0  0  0  0  0  0  0  0  0  0
   19.7376   -1.5324   19.9283 O   0  0  0  0  0  0  0  0  0  0  0  0
   17.4231   -1.0592   20.3392 N   0  0  0  0  0  0  0  0  0  0  0  0
   17.3079   -0.2147   21.5891 C   0  0  0  0  0  0  0  0  0  0  0  0
   15.9109   -0.2474   22.1678 C   0  0  0  0  0  0  0  0  0  0  0  0
   15.5674   -1.6700   21.9041 C   0  0  0  0  0  0  0  0  0  0  0  0
   16.8751   -2.1241   21.2784 C   0  0  0  0  0  0  0  0  0  0  0  0
   16.6646   -3.4329   20.4739 C   0  0  0  0  0  0  0  0  0  0  0  0
   15.8188   -3.2339   19.3215 N   0  0  0  0  0  0  0  0  0  0  0  0
   14.6972   -3.9655   18.8508 C   0  0  0  0  0  0  0  0  0  0  0  0
   14.1129   -4.8910   19.3291 O   0  0  0  0  0  0  0  0  0  0  0  0
   14.1882   -3.4287   17.5817 C   0  0  0  0  0  0  0  0  0  0  0  0
   14.7356   -2.5517   16.6446 C   0  0  0  0  0  0  0  0  0  0  0  0
   13.7050   -2.3479   15.7154 C   0  0  0  0  0  0  0  0  0  0  0  0
   13.4820   -1.5797   14.6214 O   0  0  0  0  0  0  0  0  0  0  0  0
   12.1944   -1.8587   14.2706 C   0  0  0  0  0  0  0  0  0  0  0  0
   11.6049   -2.8022   15.0810 C   0  0  0  0  0  0  0  0  0  0  0  0
   12.6170   -3.0765   16.0190 C   0  0  0  0  0  0  0  0  0  0  0  0
   12.9179   -3.7954   17.1378 N   0  0  0  0  0  0  0  0  0  0  0  0
   21.3217    0.9509   15.7367 H   0  0  0  0  0  0  0  0  0  0  0  0
   20.0494    0.9483   14.4965 H   0  0  0  0  0  0  0  0  0  0  0  0
   20.5709   -0.5926   15.2111 H   0  0  0  0  0  0  0  0  0  0  0  0
   19.9261   -1.0577   17.4563 H   0  0  0  0  0  0  0  0  0  0  0  0
   20.7111    0.4585   17.9925 H   0  0  0  0  0  0  0  0  0  0  0  0
   17.6781    0.1732   18.2035 H   0  0  0  0  0  0  0  0  0  0  0  0
   18.4003    3.4875   19.1589 H   0  0  0  0  0  0  0  0  0  0  0  0
   19.2416    2.7683   17.7821 H   0  0  0  0  0  0  0  0  0  0  0  0
   17.4900    2.4529   18.0422 H   0  0  0  0  0  0  0  0  0  0  0  0
   18.1033   -0.4491   22.3180 H   0  0  0  0  0  0  0  0  0  0  0  0
   17.5203    0.8224   21.3047 H   0  0  0  0  0  0  0  0  0  0  0  0
   15.8974    0.0190   23.2282 H   0  0  0  0  0  0  0  0  0  0  0  0
   15.2353    0.4255   21.6288 H   0  0  0  0  0  0  0  0  0  0  0  0
   15.3250   -2.2324   22.8106 H   0  0  0  0  0  0  0  0  0  0  0  0
   14.7178   -1.7359   21.2174 H   0  0  0  0  0  0  0  0  0  0  0  0
   17.6319   -2.4013   22.0344 H   0  0  0  0  0  0  0  0  0  0  0  0
   16.2254   -4.2128   21.1051 H   0  0  0  0  0  0  0  0  0  0  0  0
   17.6242   -3.8014   20.0954 H   0  0  0  0  0  0  0  0  0  0  0  0
   16.0956   -2.5677   18.6161 H   0  0  0  0  0  0  0  0  0  0  0  0
   15.7106   -2.0877   16.6318 H   0  0  0  0  0  0  0  0  0  0  0  0
   11.8305   -1.3015   13.4198 H   0  0  0  0  0  0  0  0  0  0  0  0
   10.6068   -3.2011   14.9954 H   0  0  0  0  0  0  0  0  0  0  0  0
   12.2758   -4.4190   17.6159 H   0  0  0  0  0  0  0  0  0  0  0  0
  1  2  1  0
  2  3  1  0
  3  4  1  0
  4  5  1  0
  5  6  1  0
  4  7  1  0
  7  8  2  0
  7  9  1  0
  9 10  1  0
 10 11  1  0
 11 12  1  0
 12 13  1  0
 13 14  1  0
 14 15  1  0
 15 16  1  0
 16 17  2  0
 16 18  1  0
 18 19  2  0
 19 20  1  0
 20 21  1  0
 21 22  1  0
 22 23  2  0
 23 24  1  0
 24 25  1  0
 13  9  1  0
 25 18  1  0
 24 20  2  0
  1 26  1  0
  1 27  1  0
  1 28  1  0
  3 29  1  0
  3 30  1  0
  4 31  1  0
  6 32  1  0
  6 33  1  0
  6 34  1  0
 10 35  1  0
 10 36  1  0
 11 37  1  0
 11 38  1  0
 12 39  1  0
 12 40  1  0
 13 41  1  0
 14 42  1  0
 14 43  1  0
 15 44  1  0
 19 45  1  0
 22 46  1  0
 23 47  1  0
 25 48  1  0
M  END
>  <Energy>  (67) 
100.80459617535018

>  <compound_id>  (67) 
53447

>  <target_id>  (67) 
1

>  <reference_id>  (67) 
124

>  <inspiration_ids>  (67) 
[124, 97]

>  <energy_score>  (67) 
3.352080591456968

>  <distance_score>  (67) 
4.412436635586577

>  <path>  (67) 
/opt/xchem-fragalysis-2/maxwin/BulkDock/SCRATCH/511024/C53447-P124/C53447-P124.minimised.mol

>  <scratch_subdir>  (67) 
/opt/xchem-fragalysis-2/maxwin/BulkDock/SCRATCH/511024/C53447-P124

>  <fragmenstein_runtime>  (67) 
5.704891920089722

>  <fragmenstein_outcome>  (67) 
too moved

>  <fragmenstein_mode>  (67) 
expansion

>  <fragmenstein_error>  (67) 


$$$$
C53447-P97
     RDKit          3D

 48 50  0  0  0  0  0  0  0  0999 V2000
   23.4105   -2.5954   20.0262 C   0  0  0  0  0  0  0  0  0  0  0  0
   23.0338   -3.2105   18.8007 O   0  0  0  0  0  0  0  0  0  0  0  0
   23.2586   -4.6265   18.7983 C   0  0  0  0  0  0  0  0  0  0  0  0
   22.0662   -5.4072   19.3830 C   0  0  0  0  0  0  0  0  0  0  0  0
   22.4836   -6.6627   19.9394 O   0  0  0  0  0  0  0  0  0  0  0  0
   22.9202   -7.6223   18.9836 C   0  0  0  0  0  0  0  0  0  0  0  0
   20.9197   -5.5268   18.3309 C   0  0  0  0  0  0  0  0  0  0  0  0
   21.1639   -5.8102   17.1859 O   0  0  0  0  0  0  0  0  0  0  0  0
   19.6658   -5.2674   18.9803 N   0  0  0  0  0  0  0  0  0  0  0  0
   19.0968   -6.5497   19.5504 C   0  0  0  0  0  0  0  0  0  0  0  0
   18.4667   -7.4485   18.5166 C   0  0  0  0  0  0  0  0  0  0  0  0
   17.7514   -6.4173   17.7275 C   0  0  0  0  0  0  0  0  0  0  0  0
   18.2599   -5.1553   18.4137 C   0  0  0  0  0  0  0  0  0  0  0  0
   17.2468   -4.4127   19.3325 C   0  0  0  0  0  0  0  0  0  0  0  0
   16.1624   -3.8086   18.5933 N   0  0  0  0  0  0  0  0  0  0  0  0
   14.8719   -4.3032   18.2574 C   0  0  0  0  0  0  0  0  0  0  0  0
   14.3207   -5.3166   18.5667 O   0  0  0  0  0  0  0  0  0  0  0  0
   14.1454   -3.3885   17.3684 C   0  0  0  0  0  0  0  0  0  0  0  0
   14.3942   -2.0763   16.9613 C   0  0  0  0  0  0  0  0  0  0  0  0
   13.3307   -1.7678   16.1005 C   0  0  0  0  0  0  0  0  0  0  0  0
   12.9136   -0.7106   15.3593 O   0  0  0  0  0  0  0  0  0  0  0  0
   11.7817   -1.1573   14.7430 C   0  0  0  0  0  0  0  0  0  0  0  0
   11.4544   -2.4489   15.0905 C   0  0  0  0  0  0  0  0  0  0  0  0
   12.4826   -2.8020   15.9812 C   0  0  0  0  0  0  0  0  0  0  0  0
   12.9526   -3.8041   16.7783 N   0  0  0  0  0  0  0  0  0  0  0  0
   24.4850   -2.7133   20.1963 H   0  0  0  0  0  0  0  0  0  0  0  0
   22.8494   -3.0121   20.8669 H   0  0  0  0  0  0  0  0  0  0  0  0
   23.1869   -1.5275   19.9554 H   0  0  0  0  0  0  0  0  0  0  0  0
   23.4358   -4.9116   17.7557 H   0  0  0  0  0  0  0  0  0  0  0  0
   24.1846   -4.8591   19.3393 H   0  0  0  0  0  0  0  0  0  0  0  0
   21.6689   -4.8364   20.2302 H   0  0  0  0  0  0  0  0  0  0  0  0
   22.0826   -7.9722   18.3745 H   0  0  0  0  0  0  0  0  0  0  0  0
   23.7173   -7.2265   18.3491 H   0  0  0  0  0  0  0  0  0  0  0  0
   23.3167   -8.4826   19.5303 H   0  0  0  0  0  0  0  0  0  0  0  0
   19.9294   -7.1049   20.0019 H   0  0  0  0  0  0  0  0  0  0  0  0
   18.4467   -6.3416   20.4126 H   0  0  0  0  0  0  0  0  0  0  0  0
   17.8055   -8.1973   18.9613 H   0  0  0  0  0  0  0  0  0  0  0  0
   19.2202   -7.9625   17.9106 H   0  0  0  0  0  0  0  0  0  0  0  0
   18.0553   -6.4569   16.6755 H   0  0  0  0  0  0  0  0  0  0  0  0
   16.6666   -6.5273   17.7712 H   0  0  0  0  0  0  0  0  0  0  0  0
   18.4221   -4.4484   17.5836 H   0  0  0  0  0  0  0  0  0  0  0  0
   16.7979   -5.0897   20.0657 H   0  0  0  0  0  0  0  0  0  0  0  0
   17.7511   -3.6040   19.8717 H   0  0  0  0  0  0  0  0  0  0  0  0
   16.3286   -2.9524   18.0844 H   0  0  0  0  0  0  0  0  0  0  0  0
   15.2080   -1.4217   17.2349 H   0  0  0  0  0  0  0  0  0  0  0  0
   11.3137   -0.4429   14.0776 H   0  0  0  0  0  0  0  0  0  0  0  0
   10.6145   -3.0264   14.7389 H   0  0  0  0  0  0  0  0  0  0  0  0
   12.4984   -4.7012   16.9104 H   0  0  0  0  0  0  0  0  0  0  0  0
  1  2  1  0
  2  3  1  0
  3  4  1  0
  4  5  1  0
  5  6  1  0
  4  7  1  0
  7  8  2  0
  7  9  1  0
  9 10  1  0
 10 11  1  0
 11 12  1  0
 12 13  1  0
 13 14  1  0
 14 15  1  0
 15 16  1  0
 16 17  2  0
 16 18  1  0
 18 19  2  0
 19 20  1  0
 20 21  1  0
 21 22  1  0
 22 23  2  0
 23 24  1  0
 24 25  1  0
 13  9  1  0
 25 18  1  0
 24 20  2  0
  1 26  1  0
  1 27  1  0
  1 28  1  0
  3 29  1  0
  3 30  1  0
  4 31  1  0
  6 32  1  0
  6 33  1  0
  6 34  1  0
 10 35  1  0
 10 36  1  0
 11 37  1  0
 11 38  1  0
 12 39  1  0
 12 40  1  0
 13 41  1  0
 14 42  1  0
 14 43  1  0
 15 44  1  0
 19 45  1  0
 22 46  1  0
 23 47  1  0
 25 48  1  0
M  END
>  <Energy>  (68) 
112.98649770958821

>  <compound_id>  (68) 
53447

>  <target_id>  (68) 
1

>  <reference_id>  (68) 
97

>  <inspiration_ids>  (68) 
[124, 97]

>  <energy_score>  (68) 
15.533982125695474

>  <distance_score>  (68) 
5.71967062447008

>  <path>  (68) 
/opt/xchem-fragalysis-2/maxwin/BulkDock/SCRATCH/511024/C53447-P97/C53447-P97.minimised.mol

>  <scratch_subdir>  (68) 
/opt/xchem-fragalysis-2/maxwin/BulkDock/SCRATCH/511024/C53447-P97

>  <fragmenstein_runtime>  (68) 
7.7914135456085205

>  <fragmenstein_outcome>  (68) 
too moved

>  <fragmenstein_mode>  (68) 
expansion

>  <fragmenstein_error>  (68) 


$$$$
C24747-P124
     RDKit          3D

 48 50  0  0  0  0  0  0  0  0999 V2000
   15.6043   -2.0841   11.8352 C   0  0  0  0  0  0  0  0  0  0  0  0
   16.9523   -1.6808   11.6308 O   0  0  0  0  0  0  0  0  0  0  0  0
   17.8459   -2.8042   11.6957 C   0  0  0  0  0  0  0  0  0  0  0  0
   19.3051   -2.3317   11.5439 C   0  0  0  0  0  0  0  0  0  0  0  0
   19.9703   -3.2972   10.7154 O   0  0  0  0  0  0  0  0  0  0  0  0
   21.1109   -2.7663   10.0546 C   0  0  0  0  0  0  0  0  0  0  0  0
   19.9910   -2.1622   12.9485 C   0  0  0  0  0  0  0  0  0  0  0  0
   21.0972   -2.5949   13.1461 O   0  0  0  0  0  0  0  0  0  0  0  0
   19.0988   -1.4691   13.8191 N   0  0  0  0  0  0  0  0  0  0  0  0
   19.3145    0.0245   13.7124 C   0  0  0  0  0  0  0  0  0  0  0  0
   18.3296    0.8136   14.5587 C   0  0  0  0  0  0  0  0  0  0  0  0
   18.1142   -0.1729   15.6585 C   0  0  0  0  0  0  0  0  0  0  0  0
   16.7968   -0.7665   15.5777 N   0  0  0  0  0  0  0  0  0  0  0  0
   15.5064   -0.1944   15.7286 C   0  0  0  0  0  0  0  0  0  0  0  0
   15.1730    0.9094   16.0391 O   0  0  0  0  0  0  0  0  0  0  0  0
   14.4251   -1.1750   15.4835 C   0  0  0  0  0  0  0  0  0  0  0  0
   13.4708   -0.9181   14.4897 C   0  0  0  0  0  0  0  0  0  0  0  0
   12.3485   -1.7343   14.3663 C   0  0  0  0  0  0  0  0  0  0  0  0
   12.1261   -2.7966   15.2471 C   0  0  0  0  0  0  0  0  0  0  0  0
   13.0845   -3.0269   16.2430 C   0  0  0  0  0  0  0  0  0  0  0  0
   13.0728   -3.9149   17.2930 N   0  0  0  0  0  0  0  0  0  0  0  0
   14.1802   -3.7348   18.0799 C   0  0  0  0  0  0  0  0  0  0  0  0
   14.9424   -2.7416   17.5162 C   0  0  0  0  0  0  0  0  0  0  0  0
   14.2474   -2.2608   16.3692 C   0  0  0  0  0  0  0  0  0  0  0  0
   19.2029   -1.1552   15.2802 C   0  0  0  0  0  0  0  0  0  0  0  0
   15.4855   -2.5054   12.8363 H   0  0  0  0  0  0  0  0  0  0  0  0
   15.2999   -2.8139   11.0814 H   0  0  0  0  0  0  0  0  0  0  0  0
   14.9646   -1.2028   11.7436 H   0  0  0  0  0  0  0  0  0  0  0  0
   17.7032   -3.3322   12.6449 H   0  0  0  0  0  0  0  0  0  0  0  0
   17.5856   -3.4889   10.8797 H   0  0  0  0  0  0  0  0  0  0  0  0
   19.3247   -1.3561   11.0420 H   0  0  0  0  0  0  0  0  0  0  0  0
   21.5744   -3.5700    9.4758 H   0  0  0  0  0  0  0  0  0  0  0  0
   20.8119   -1.9730    9.3626 H   0  0  0  0  0  0  0  0  0  0  0  0
   21.8480   -2.3829   10.7643 H   0  0  0  0  0  0  0  0  0  0  0  0
   19.1543    0.2962   12.6602 H   0  0  0  0  0  0  0  0  0  0  0  0
   20.3697    0.2967   13.8918 H   0  0  0  0  0  0  0  0  0  0  0  0
   18.7857    1.7472   14.9030 H   0  0  0  0  0  0  0  0  0  0  0  0
   17.4206    1.0570   13.9984 H   0  0  0  0  0  0  0  0  0  0  0  0
   18.2348    0.2596   16.6553 H   0  0  0  0  0  0  0  0  0  0  0  0
   16.6989   -1.7135   15.2194 H   0  0  0  0  0  0  0  0  0  0  0  0
   13.5754   -0.0446   13.8493 H   0  0  0  0  0  0  0  0  0  0  0  0
   11.6011   -1.5009   13.6111 H   0  0  0  0  0  0  0  0  0  0  0  0
   11.2218   -3.3939   15.1739 H   0  0  0  0  0  0  0  0  0  0  0  0
   12.2934   -4.5201   17.5156 H   0  0  0  0  0  0  0  0  0  0  0  0
   14.3100   -4.2962   18.9958 H   0  0  0  0  0  0  0  0  0  0  0  0
   15.8612   -2.3454   17.9300 H   0  0  0  0  0  0  0  0  0  0  0  0
   20.2250   -0.8712   15.5841 H   0  0  0  0  0  0  0  0  0  0  0  0
   19.0339   -2.1151   15.7875 H   0  0  0  0  0  0  0  0  0  0  0  0
  1  2  1  0
  2  3  1  0
  3  4  1  0
  4  5  1  0
  5  6  1  0
  4  7  1  0
  7  8  2  0
  7  9  1  0
  9 10  1  0
 10 11  1  0
 11 12  1  0
 12 13  1  0
 13 14  1  0
 14 15  2  0
 14 16  1  0
 16 17  2  0
 17 18  1  0
 18 19  2  0
 19 20  1  0
 20 21  1  0
 21 22  1  0
 22 23  2  0
 23 24  1  0
 12 25  1  0
 25  9  1  0
 24 16  1  0
 24 20  2  0
  1 26  1  0
  1 27  1  0
  1 28  1  0
  3 29  1  0
  3 30  1  0
  4 31  1  0
  6 32  1  0
  6 33  1  0
  6 34  1  0
 10 35  1  0
 10 36  1  0
 11 37  1  0
 11 38  1  0
 12 39  1  0
 13 40  1  0
 17 41  1  0
 18 42  1  0
 19 43  1  0
 21 44  1  0
 22 45  1  0
 23 46  1  0
 25 47  1  0
 25 48  1  0
M  END
>  <Energy>  (69) 
149.41958779044882

>  <compound_id>  (69) 
24747

>  <target_id>  (69) 
1

>  <reference_id>  (69) 
124

>  <inspiration_ids>  (69) 
[124, 97]

>  <energy_score>  (69) 
20.971617509852194

>  <distance_score>  (69) 
3.18195326944492

>  <path>  (69) 
/opt/xchem-fragalysis-2/maxwin/BulkDock/SCRATCH/511024/C24747-P124/C24747-P124.minimised.mol

>  <scratch_subdir>  (69) 
/opt/xchem-fragalysis-2/maxwin/BulkDock/SCRATCH/511024/C24747-P124

>  <fragmenstein_runtime>  (69) 
12.251991510391235

>  <fragmenstein_outcome>  (69) 
too moved

>  <fragmenstein_mode>  (69) 
expansion

>  <fragmenstein_error>  (69) 


$$$$
C24747-P97
     RDKit          3D

 48 50  0  0  0  0  0  0  0  0999 V2000
   15.2288   -1.8989   11.5869 C   0  0  0  0  0  0  0  0  0  0  0  0
   16.5071   -2.5091   11.5146 O   0  0  0  0  0  0  0  0  0  0  0  0
   17.1562   -2.6504   12.7865 C   0  0  0  0  0  0  0  0  0  0  0  0
   17.8951   -1.3576   13.2046 C   0  0  0  0  0  0  0  0  0  0  0  0
   19.0907   -1.6858   13.9219 O   0  0  0  0  0  0  0  0  0  0  0  0
   20.2165   -1.8088   13.0627 C   0  0  0  0  0  0  0  0  0  0  0  0
   16.9479   -0.5032   14.0801 C   0  0  0  0  0  0  0  0  0  0  0  0
   15.8424   -0.8505   14.2999 O   0  0  0  0  0  0  0  0  0  0  0  0
   17.6676    0.7913   14.4496 N   0  0  0  0  0  0  0  0  0  0  0  0
   18.3613    0.6722   15.8080 C   0  0  0  0  0  0  0  0  0  0  0  0
   17.4922    0.9231   17.0380 C   0  0  0  0  0  0  0  0  0  0  0  0
   16.4081    1.7162   16.3980 C   0  0  0  0  0  0  0  0  0  0  0  0
   15.2815    0.8415   16.1816 N   0  0  0  0  0  0  0  0  0  0  0  0
   14.4040    0.0900   17.1777 C   0  0  0  0  0  0  0  0  0  0  0  0
   14.3945    0.1114   18.3381 O   0  0  0  0  0  0  0  0  0  0  0  0
   13.5179   -0.8645   16.4523 C   0  0  0  0  0  0  0  0  0  0  0  0
   12.6686   -0.4403   15.4221 C   0  0  0  0  0  0  0  0  0  0  0  0
   11.7940   -1.3398   14.8186 C   0  0  0  0  0  0  0  0  0  0  0  0
   11.7267   -2.6761   15.2233 C   0  0  0  0  0  0  0  0  0  0  0  0
   12.5978   -3.0857   16.2386 C   0  0  0  0  0  0  0  0  0  0  0  0
   12.7272   -4.3017   16.8694 N   0  0  0  0  0  0  0  0  0  0  0  0
   13.6854   -4.2356   17.8431 C   0  0  0  0  0  0  0  0  0  0  0  0
   14.2316   -2.9798   17.8098 C   0  0  0  0  0  0  0  0  0  0  0  0
   13.5126   -2.2213   16.8416 C   0  0  0  0  0  0  0  0  0  0  0  0
   17.1544    2.0441   15.1110 C   0  0  0  0  0  0  0  0  0  0  0  0
   15.3181   -0.8383   11.8324 H   0  0  0  0  0  0  0  0  0  0  0  0
   14.5809   -2.4140   12.3012 H   0  0  0  0  0  0  0  0  0  0  0  0
   14.7772   -1.9638   10.5955 H   0  0  0  0  0  0  0  0  0  0  0  0
   16.4575   -3.0197   13.5459 H   0  0  0  0  0  0  0  0  0  0  0  0
   17.8953   -3.4476   12.6514 H   0  0  0  0  0  0  0  0  0  0  0  0
   18.1293   -0.7494   12.3202 H   0  0  0  0  0  0  0  0  0  0  0  0
   21.0777   -2.1054   13.6674 H   0  0  0  0  0  0  0  0  0  0  0  0
   20.0475   -2.5727   12.2984 H   0  0  0  0  0  0  0  0  0  0  0  0
   20.4402   -0.8472   12.5907 H   0  0  0  0  0  0  0  0  0  0  0  0
   19.2647    1.3055   15.8013 H   0  0  0  0  0  0  0  0  0  0  0  0
   18.7529   -0.3480   15.8930 H   0  0  0  0  0  0  0  0  0  0  0  0
   17.1682   -0.0119   17.5064 H   0  0  0  0  0  0  0  0  0  0  0  0
   18.0563    1.4990   17.7795 H   0  0  0  0  0  0  0  0  0  0  0  0
   16.0873    2.5819   16.9816 H   0  0  0  0  0  0  0  0  0  0  0  0
   15.0735    0.5201   15.2351 H   0  0  0  0  0  0  0  0  0  0  0  0
   12.6618    0.6003   15.1104 H   0  0  0  0  0  0  0  0  0  0  0  0
   11.1334   -0.9804   14.0345 H   0  0  0  0  0  0  0  0  0  0  0  0
   11.0178   -3.3572   14.7645 H   0  0  0  0  0  0  0  0  0  0  0  0
   12.1324   -5.0971   16.6858 H   0  0  0  0  0  0  0  0  0  0  0  0
   13.8756   -5.0545   18.5181 H   0  0  0  0  0  0  0  0  0  0  0  0
   14.9976   -2.6055   18.4777 H   0  0  0  0  0  0  0  0  0  0  0  0
   17.9349    2.8177   15.2045 H   0  0  0  0  0  0  0  0  0  0  0  0
   16.4300    2.4516   14.3924 H   0  0  0  0  0  0  0  0  0  0  0  0
  1  2  1  0
  2  3  1  0
  3  4  1  0
  4  5  1  0
  5  6  1  0
  4  7  1  0
  7  8  2  0
  7  9  1  0
  9 10  1  0
 10 11  1  0
 11 12  1  0
 12 13  1  0
 13 14  1  0
 14 15  2  0
 14 16  1  0
 16 17  2  0
 17 18  1  0
 18 19  2  0
 19 20  1  0
 20 21  1  0
 21 22  1  0
 22 23  2  0
 23 24  1  0
 12 25  1  0
 25  9  1  0
 24 16  1  0
 24 20  2  0
  1 26  1  0
  1 27  1  0
  1 28  1  0
  3 29  1  0
  3 30  1  0
  4 31  1  0
  6 32  1  0
  6 33  1  0
  6 34  1  0
 10 35  1  0
 10 36  1  0
 11 37  1  0
 11 38  1  0
 12 39  1  0
 13 40  1  0
 17 41  1  0
 18 42  1  0
 19 43  1  0
 21 44  1  0
 22 45  1  0
 23 46  1  0
 25 47  1  0
 25 48  1  0
M  END
>  <Energy>  (70) 
174.60237871082768

>  <compound_id>  (70) 
24747

>  <target_id>  (70) 
1

>  <reference_id>  (70) 
97

>  <inspiration_ids>  (70) 
[124, 97]

>  <energy_score>  (70) 
-8.121240940110454

>  <distance_score>  (70) 
2.3932548819869965

>  <path>  (70) 
/opt/xchem-fragalysis-2/maxwin/BulkDock/SCRATCH/511024/C24747-P97/C24747-P97.minimised.mol

>  <scratch_subdir>  (70) 
/opt/xchem-fragalysis-2/maxwin/BulkDock/SCRATCH/511024/C24747-P97

>  <fragmenstein_runtime>  (70) 
10.154384851455688

>  <fragmenstein_outcome>  (70) 
too moved

>  <fragmenstein_mode>  (70) 
expansion

>  <fragmenstein_error>  (70) 


$$$$
C53448-P124
     RDKit          3D

 45 47  0  0  0  0  0  0  0  0999 V2000
   17.8566   -3.0355   23.9381 C   0  0  0  0  0  0  0  0  0  0  0  0
   18.2595   -2.1265   22.9213 O   0  0  0  0  0  0  0  0  0  0  0  0
   19.6384   -1.7587   23.0611 C   0  0  0  0  0  0  0  0  0  0  0  0
   20.0379   -0.8280   21.9066 C   0  0  0  0  0  0  0  0  0  0  0  0
   21.2008   -0.0569   22.2274 O   0  0  0  0  0  0  0  0  0  0  0  0
   22.4186   -0.7902   22.2398 C   0  0  0  0  0  0  0  0  0  0  0  0
   20.1408   -1.6551   20.5903 C   0  0  0  0  0  0  0  0  0  0  0  0
   20.6600   -2.7119   20.5353 O   0  0  0  0  0  0  0  0  0  0  0  0
   19.5262   -0.8007   19.4885 N   0  0  0  0  0  0  0  0  0  0  0  0
   19.4897   -1.0020   18.0020 C   0  0  0  0  0  0  0  0  0  0  0  0
   18.9264   -2.3484   17.5926 C   0  0  0  0  0  0  0  0  0  0  0  0
   17.8041   -2.4186   18.5657 C   0  0  0  0  0  0  0  0  0  0  0  0
   16.5488   -2.4749   17.8747 N   0  0  0  0  0  0  0  0  0  0  0  0
   15.8363   -3.6530   17.1952 C   0  0  0  0  0  0  0  0  0  0  0  0
   16.1165   -4.7808   17.1539 O   0  0  0  0  0  0  0  0  0  0  0  0
   14.7049   -3.1177   16.4535 C   0  0  0  0  0  0  0  0  0  0  0  0
   14.7690   -2.1130   15.5105 C   0  0  0  0  0  0  0  0  0  0  0  0
   13.4900   -1.8536   14.9906 C   0  0  0  0  0  0  0  0  0  0  0  0
   12.9513   -0.9870   14.0885 N   0  0  0  0  0  0  0  0  0  0  0  0
   11.6115   -1.2110   14.0727 C   0  0  0  0  0  0  0  0  0  0  0  0
   11.2971   -2.2934   14.8675 C   0  0  0  0  0  0  0  0  0  0  0  0
   12.5145   -2.6567   15.4972 C   0  0  0  0  0  0  0  0  0  0  0  0
   13.1303   -3.7513   16.6889 S   0  0  0  0  0  0  0  0  0  0  0  0
   18.0566   -1.1141   19.3068 C   0  0  0  0  0  0  0  0  0  0  0  0
   16.7992   -3.2700   23.7900 H   0  0  0  0  0  0  0  0  0  0  0  0
   18.4329   -3.9633   23.8718 H   0  0  0  0  0  0  0  0  0  0  0  0
   17.9802   -2.5835   24.9269 H   0  0  0  0  0  0  0  0  0  0  0  0
   19.7736   -1.2401   24.0180 H   0  0  0  0  0  0  0  0  0  0  0  0
   20.2577   -2.6631   23.0792 H   0  0  0  0  0  0  0  0  0  0  0  0
   19.2291   -0.0973   21.7840 H   0  0  0  0  0  0  0  0  0  0  0  0
   22.3623   -1.6519   22.9098 H   0  0  0  0  0  0  0  0  0  0  0  0
   23.2066   -0.1260   22.6060 H   0  0  0  0  0  0  0  0  0  0  0  0
   22.6919   -1.1062   21.2294 H   0  0  0  0  0  0  0  0  0  0  0  0
   19.0314   -0.1418   17.4852 H   0  0  0  0  0  0  0  0  0  0  0  0
   20.5433   -0.9788   17.6921 H   0  0  0  0  0  0  0  0  0  0  0  0
   19.6553   -3.1451   17.7796 H   0  0  0  0  0  0  0  0  0  0  0  0
   18.6493   -2.3722   16.5342 H   0  0  0  0  0  0  0  0  0  0  0  0
   17.8938   -3.3029   19.2052 H   0  0  0  0  0  0  0  0  0  0  0  0
   16.0731   -1.6121   17.6408 H   0  0  0  0  0  0  0  0  0  0  0  0
   15.6811   -1.6137   15.2078 H   0  0  0  0  0  0  0  0  0  0  0  0
   13.4749   -0.2849   13.5804 H   0  0  0  0  0  0  0  0  0  0  0  0
   10.9843   -0.5615   13.4813 H   0  0  0  0  0  0  0  0  0  0  0  0
   10.3196   -2.7312   15.0005 H   0  0  0  0  0  0  0  0  0  0  0  0
   17.5249   -0.2409   18.8884 H   0  0  0  0  0  0  0  0  0  0  0  0
   17.6252   -1.2164   20.3123 H   0  0  0  0  0  0  0  0  0  0  0  0
  1  2  1  0
  2  3  1  0
  3  4  1  0
  4  5  1  0
  5  6  1  0
  4  7  1  0
  7  8  2  0
  7  9  1  0
  9 10  1  0
 10 11  1  0
 11 12  1  0
 12 13  1  0
 13 14  1  0
 14 15  2  0
 14 16  1  0
 16 17  2  0
 17 18  1  0
 18 19  1  0
 19 20  1  0
 20 21  2  0
 21 22  1  0
 22 23  1  0
 12 24  1  0
 24  9  1  0
 23 16  1  0
 22 18  2  0
  1 25  1  0
  1 26  1  0
  1 27  1  0
  3 28  1  0
  3 29  1  0
  4 30  1  0
  6 31  1  0
  6 32  1  0
  6 33  1  0
 10 34  1  0
 10 35  1  0
 11 36  1  0
 11 37  1  0
 12 38  1  0
 13 39  1  0
 17 40  1  0
 19 41  1  0
 20 42  1  0
 21 43  1  0
 24 44  1  0
 24 45  1  0
M  END
>  <Energy>  (71) 
151.83346463492268

>  <compound_id>  (71) 
53448

>  <target_id>  (71) 
1

>  <reference_id>  (71) 
124

>  <inspiration_ids>  (71) 
[124, 97]

>  <energy_score>  (71) 
-41.05746426324447

>  <distance_score>  (71) 
4.118667110691162

>  <path>  (71) 
/opt/xchem-fragalysis-2/maxwin/BulkDock/SCRATCH/511024/C53448-P124/C53448-P124.minimised.mol

>  <scratch_subdir>  (71) 
/opt/xchem-fragalysis-2/maxwin/BulkDock/SCRATCH/511024/C53448-P124

>  <fragmenstein_runtime>  (71) 
6.080089092254639

>  <fragmenstein_outcome>  (71) 
too moved

>  <fragmenstein_mode>  (71) 
expansion

>  <fragmenstein_error>  (71) 


$$$$
C53448-P97
     RDKit          3D

 45 47  0  0  0  0  0  0  0  0999 V2000
   20.7120   -4.2471   21.3426 C   0  0  0  0  0  0  0  0  0  0  0  0
   19.3168   -4.4884   21.2258 O   0  0  0  0  0  0  0  0  0  0  0  0
   18.5802   -3.2717   21.0791 C   0  0  0  0  0  0  0  0  0  0  0  0
   17.0778   -3.5600   20.9409 C   0  0  0  0  0  0  0  0  0  0  0  0
   16.3772   -2.3259   21.1238 O   0  0  0  0  0  0  0  0  0  0  0  0
   15.0521   -2.5310   21.6037 C   0  0  0  0  0  0  0  0  0  0  0  0
   16.7743   -4.2604   19.5777 C   0  0  0  0  0  0  0  0  0  0  0  0
   16.2904   -5.3645   19.5805 O   0  0  0  0  0  0  0  0  0  0  0  0
   17.2366   -3.4493   18.4890 N   0  0  0  0  0  0  0  0  0  0  0  0
   17.3682   -3.7543   17.0306 C   0  0  0  0  0  0  0  0  0  0  0  0
   16.0798   -4.2240   16.3916 C   0  0  0  0  0  0  0  0  0  0  0  0
   15.1180   -3.3443   17.1140 C   0  0  0  0  0  0  0  0  0  0  0  0
   14.3417   -2.5111   16.2295 N   0  0  0  0  0  0  0  0  0  0  0  0
   12.9397   -2.4985   15.9421 C   0  0  0  0  0  0  0  0  0  0  0  0
   12.0653   -3.2254   16.3018 O   0  0  0  0  0  0  0  0  0  0  0  0
   12.6194   -1.3668   15.0613 C   0  0  0  0  0  0  0  0  0  0  0  0
   13.3249   -0.9066   13.9626 C   0  0  0  0  0  0  0  0  0  0  0  0
   12.7171    0.2695   13.4537 C   0  0  0  0  0  0  0  0  0  0  0  0
   12.9494    1.1740   12.4479 N   0  0  0  0  0  0  0  0  0  0  0  0
   11.9670    2.1290   12.4986 C   0  0  0  0  0  0  0  0  0  0  0  0
   11.1044    1.8480   13.5347 C   0  0  0  0  0  0  0  0  0  0  0  0
   11.5861    0.6406   14.1143 C   0  0  0  0  0  0  0  0  0  0  0  0
   11.1824   -0.4641   15.3759 S   0  0  0  0  0  0  0  0  0  0  0  0
   16.1151   -2.5704   17.9745 C   0  0  0  0  0  0  0  0  0  0  0  0
   21.2194   -5.2085   21.4583 H   0  0  0  0  0  0  0  0  0  0  0  0
   21.0927   -3.7577   20.4410 H   0  0  0  0  0  0  0  0  0  0  0  0
   20.9227   -3.6325   22.2231 H   0  0  0  0  0  0  0  0  0  0  0  0
   18.7446   -2.6517   21.9698 H   0  0  0  0  0  0  0  0  0  0  0  0
   18.9617   -2.7046   20.2219 H   0  0  0  0  0  0  0  0  0  0  0  0
   16.7990   -4.2672   21.7345 H   0  0  0  0  0  0  0  0  0  0  0  0
   15.0703   -3.0063   22.5890 H   0  0  0  0  0  0  0  0  0  0  0  0
   14.4725   -3.1362   20.9004 H   0  0  0  0  0  0  0  0  0  0  0  0
   14.5808   -1.5502   21.7004 H   0  0  0  0  0  0  0  0  0  0  0  0
   17.8533   -2.9219   16.4945 H   0  0  0  0  0  0  0  0  0  0  0  0
   18.0905   -4.5797   16.9746 H   0  0  0  0  0  0  0  0  0  0  0  0
   15.8934   -5.2782   16.6193 H   0  0  0  0  0  0  0  0  0  0  0  0
   16.1048   -4.0998   15.3058 H   0  0  0  0  0  0  0  0  0  0  0  0
   14.4299   -3.9393   17.7253 H   0  0  0  0  0  0  0  0  0  0  0  0
   14.7699   -1.6908   15.8186 H   0  0  0  0  0  0  0  0  0  0  0  0
   14.2162   -1.3727   13.5614 H   0  0  0  0  0  0  0  0  0  0  0  0
   13.7257    1.1106   11.7995 H   0  0  0  0  0  0  0  0  0  0  0  0
   11.9773    2.9492   11.7919 H   0  0  0  0  0  0  0  0  0  0  0  0
   10.2468    2.4253   13.8466 H   0  0  0  0  0  0  0  0  0  0  0  0
   16.5281   -1.6715   17.4839 H   0  0  0  0  0  0  0  0  0  0  0  0
   15.5647   -2.1650   18.8303 H   0  0  0  0  0  0  0  0  0  0  0  0
  1  2  1  0
  2  3  1  0
  3  4  1  0
  4  5  1  0
  5  6  1  0
  4  7  1  0
  7  8  2  0
  7  9  1  0
  9 10  1  0
 10 11  1  0
 11 12  1  0
 12 13  1  0
 13 14  1  0
 14 15  2  0
 14 16  1  0
 16 17  2  0
 17 18  1  0
 18 19  1  0
 19 20  1  0
 20 21  2  0
 21 22  1  0
 22 23  1  0
 12 24  1  0
 24  9  1  0
 23 16  1  0
 22 18  2  0
  1 25  1  0
  1 26  1  0
  1 27  1  0
  3 28  1  0
  3 29  1  0
  4 30  1  0
  6 31  1  0
  6 32  1  0
  6 33  1  0
 10 34  1  0
 10 35  1  0
 11 36  1  0
 11 37  1  0
 12 38  1  0
 13 39  1  0
 17 40  1  0
 19 41  1  0
 20 42  1  0
 21 43  1  0
 24 44  1  0
 24 45  1  0
M  END
>  <Energy>  (72) 
130.8017875417984

>  <compound_id>  (72) 
53448

>  <target_id>  (72) 
1

>  <reference_id>  (72) 
97

>  <inspiration_ids>  (72) 
[124, 97]

>  <energy_score>  (72) 
-10.678214164173056

>  <distance_score>  (72) 
3.3678555035880504

>  <path>  (72) 
/opt/xchem-fragalysis-2/maxwin/BulkDock/SCRATCH/511024/C53448-P97/C53448-P97.minimised.mol

>  <scratch_subdir>  (72) 
/opt/xchem-fragalysis-2/maxwin/BulkDock/SCRATCH/511024/C53448-P97

>  <fragmenstein_runtime>  (72) 
5.323121547698975

>  <fragmenstein_outcome>  (72) 
too moved

>  <fragmenstein_mode>  (72) 
expansion

>  <fragmenstein_error>  (72) 


$$$$
C53449-P124
     RDKit          3D

 48 50  0  0  0  0  0  0  0  0999 V2000
   16.0778   -1.9947   11.6829 C   0  0  0  0  0  0  0  0  0  0  0  0
   16.1163   -0.6505   12.1467 O   0  0  0  0  0  0  0  0  0  0  0  0
   16.7994    0.2118   11.2239 C   0  0  0  0  0  0  0  0  0  0  0  0
   16.9067    1.6561   11.7676 C   0  0  0  0  0  0  0  0  0  0  0  0
   16.9609    2.6123   10.7053 O   0  0  0  0  0  0  0  0  0  0  0  0
   18.1699    2.6344    9.9600 C   0  0  0  0  0  0  0  0  0  0  0  0
   18.0624    1.6967   12.8209 C   0  0  0  0  0  0  0  0  0  0  0  0
   19.2013    1.7764   12.5327 O   0  0  0  0  0  0  0  0  0  0  0  0
   17.4037    1.5139   14.1743 N   0  0  0  0  0  0  0  0  0  0  0  0
   17.1027    2.8554   14.8276 C   0  0  0  0  0  0  0  0  0  0  0  0
   16.4447    2.7417   16.2083 C   0  0  0  0  0  0  0  0  0  0  0  0
   16.8868    1.3674   16.5502 C   0  0  0  0  0  0  0  0  0  0  0  0
   15.8487    0.4186   16.2178 N   0  0  0  0  0  0  0  0  0  0  0  0
   15.8661   -1.1082   16.2068 C   0  0  0  0  0  0  0  0  0  0  0  0
   16.6932   -1.8549   16.5367 O   0  0  0  0  0  0  0  0  0  0  0  0
   14.5775   -1.6264   15.6812 C   0  0  0  0  0  0  0  0  0  0  0  0
   13.8926   -1.0979   14.5743 C   0  0  0  0  0  0  0  0  0  0  0  0
   12.6387   -1.5846   14.2004 C   0  0  0  0  0  0  0  0  0  0  0  0
   12.0417   -2.6277   14.9059 C   0  0  0  0  0  0  0  0  0  0  0  0
   12.7203   -3.1629   16.0120 C   0  0  0  0  0  0  0  0  0  0  0  0
   12.4210   -4.1617   16.9483 C   0  0  0  0  0  0  0  0  0  0  0  0
   13.3558   -4.1052   17.9574 C   0  0  0  0  0  0  0  0  0  0  0  0
   14.3634   -3.3034   17.5261 N   0  0  0  0  0  0  0  0  0  0  0  0
   13.9598   -2.6576   16.3808 C   0  0  0  0  0  0  0  0  0  0  0  0
   18.0028    1.2798   15.5276 C   0  0  0  0  0  0  0  0  0  0  0  0
   17.0900   -2.3853   11.5443 H   0  0  0  0  0  0  0  0  0  0  0  0
   15.5150   -2.0536   10.7479 H   0  0  0  0  0  0  0  0  0  0  0  0
   15.5675   -2.6011   12.4339 H   0  0  0  0  0  0  0  0  0  0  0  0
   16.2434    0.2159   10.2785 H   0  0  0  0  0  0  0  0  0  0  0  0
   17.7979   -0.1963   11.0257 H   0  0  0  0  0  0  0  0  0  0  0  0
   15.9687    1.8780   12.2907 H   0  0  0  0  0  0  0  0  0  0  0  0
   18.4994    1.6305    9.6800 H   0  0  0  0  0  0  0  0  0  0  0  0
   18.9520    3.1579   10.5153 H   0  0  0  0  0  0  0  0  0  0  0  0
   17.9863    3.2001    9.0419 H   0  0  0  0  0  0  0  0  0  0  0  0
   16.4040    3.3693   14.1528 H   0  0  0  0  0  0  0  0  0  0  0  0
   17.9933    3.5082   14.8205 H   0  0  0  0  0  0  0  0  0  0  0  0
   15.3585    2.8728   16.1656 H   0  0  0  0  0  0  0  0  0  0  0  0
   16.8590    3.5023   16.8785 H   0  0  0  0  0  0  0  0  0  0  0  0
   17.2132    1.2137   17.5808 H   0  0  0  0  0  0  0  0  0  0  0  0
   14.9959    0.7497   15.7821 H   0  0  0  0  0  0  0  0  0  0  0  0
   14.3399   -0.3008   13.9844 H   0  0  0  0  0  0  0  0  0  0  0  0
   12.1145   -1.1425   13.3587 H   0  0  0  0  0  0  0  0  0  0  0  0
   11.0656   -3.0010   14.6087 H   0  0  0  0  0  0  0  0  0  0  0  0
   11.5283   -4.7601   16.9323 H   0  0  0  0  0  0  0  0  0  0  0  0
   13.3965   -4.5870   18.9249 H   0  0  0  0  0  0  0  0  0  0  0  0
   15.2380   -3.1154   18.0042 H   0  0  0  0  0  0  0  0  0  0  0  0
   18.3848    0.2506   15.4808 H   0  0  0  0  0  0  0  0  0  0  0  0
   18.9063    1.8821   15.7275 H   0  0  0  0  0  0  0  0  0  0  0  0
  1  2  1  0
  2  3  1  0
  3  4  1  0
  4  5  1  0
  5  6  1  0
  4  7  1  0
  7  8  2  0
  7  9  1  0
  9 10  1  0
 10 11  1  0
 11 12  1  0
 12 13  1  0
 13 14  1  0
 14 15  2  0
 14 16  1  0
 16 17  2  0
 17 18  1  0
 18 19  2  0
 19 20  1  0
 20 21  1  0
 21 22  2  0
 22 23  1  0
 23 24  1  0
 12 25  1  0
 25  9  1  0
 24 16  1  0
 24 20  2  0
  1 26  1  0
  1 27  1  0
  1 28  1  0
  3 29  1  0
  3 30  1  0
  4 31  1  0
  6 32  1  0
  6 33  1  0
  6 34  1  0
 10 35  1  0
 10 36  1  0
 11 37  1  0
 11 38  1  0
 12 39  1  0
 13 40  1  0
 17 41  1  0
 18 42  1  0
 19 43  1  0
 21 44  1  0
 22 45  1  0
 23 46  1  0
 25 47  1  0
 25 48  1  0
M  END
>  <Energy>  (73) 
168.13236649790943

>  <compound_id>  (73) 
53449

>  <target_id>  (73) 
1

>  <reference_id>  (73) 
124

>  <inspiration_ids>  (73) 
[124, 97]

>  <energy_score>  (73) 
40.934283124452776

>  <distance_score>  (73) 
3.1414566384476172

>  <path>  (73) 
/opt/xchem-fragalysis-2/maxwin/BulkDock/SCRATCH/511024/C53449-P124/C53449-P124.minimised.mol

>  <scratch_subdir>  (73) 
/opt/xchem-fragalysis-2/maxwin/BulkDock/SCRATCH/511024/C53449-P124

>  <fragmenstein_runtime>  (73) 
5.722052097320557

>  <fragmenstein_outcome>  (73) 
too moved

>  <fragmenstein_mode>  (73) 
expansion

>  <fragmenstein_error>  (73) 


$$$$
C53449-P97
     RDKit          3D

 48 50  0  0  0  0  0  0  0  0999 V2000
   15.9117   -2.1892   11.8910 C   0  0  0  0  0  0  0  0  0  0  0  0
   16.1052   -0.7851   12.0015 O   0  0  0  0  0  0  0  0  0  0  0  0
   17.2398   -0.4776   12.8270 C   0  0  0  0  0  0  0  0  0  0  0  0
   17.5518    1.0397   12.7929 C   0  0  0  0  0  0  0  0  0  0  0  0
   18.0668    1.5310   11.5541 O   0  0  0  0  0  0  0  0  0  0  0  0
   19.1684    0.8193   11.0146 C   0  0  0  0  0  0  0  0  0  0  0  0
   18.4086    1.3647   14.0563 C   0  0  0  0  0  0  0  0  0  0  0  0
   19.5825    1.4501   14.0560 O   0  0  0  0  0  0  0  0  0  0  0  0
   17.4194    1.4280   15.2072 N   0  0  0  0  0  0  0  0  0  0  0  0
   16.9547    2.8549   15.4574 C   0  0  0  0  0  0  0  0  0  0  0  0
   15.9900    3.0043   16.6361 C   0  0  0  0  0  0  0  0  0  0  0  0
   16.2970    1.7391   17.3492 C   0  0  0  0  0  0  0  0  0  0  0  0
   15.3313    0.7301   16.9531 N   0  0  0  0  0  0  0  0  0  0  0  0
   15.4937   -0.7793   16.7560 C   0  0  0  0  0  0  0  0  0  0  0  0
   16.4073   -1.4716   16.9529 O   0  0  0  0  0  0  0  0  0  0  0  0
   14.2691   -1.3653   16.1560 C   0  0  0  0  0  0  0  0  0  0  0  0
   13.5690   -0.8024   15.0745 C   0  0  0  0  0  0  0  0  0  0  0  0
   12.4196   -1.4129   14.5680 C   0  0  0  0  0  0  0  0  0  0  0  0
   11.9571   -2.6134   15.1116 C   0  0  0  0  0  0  0  0  0  0  0  0
   12.6738   -3.2042   16.1675 C   0  0  0  0  0  0  0  0  0  0  0  0
   12.5269   -4.3879   16.9172 C   0  0  0  0  0  0  0  0  0  0  0  0
   13.4884   -4.4086   17.9014 C   0  0  0  0  0  0  0  0  0  0  0  0
   14.3066   -3.3438   17.6914 N   0  0  0  0  0  0  0  0  0  0  0  0
   13.8046   -2.5738   16.6673 C   0  0  0  0  0  0  0  0  0  0  0  0
   17.6468    1.5156   16.6855 C   0  0  0  0  0  0  0  0  0  0  0  0
   15.7545   -2.6279   12.8804 H   0  0  0  0  0  0  0  0  0  0  0  0
   16.7696   -2.6566   11.3984 H   0  0  0  0  0  0  0  0  0  0  0  0
   15.0206   -2.3678   11.2834 H   0  0  0  0  0  0  0  0  0  0  0  0
   18.1041   -1.0605   12.4907 H   0  0  0  0  0  0  0  0  0  0  0  0
   17.0015   -0.8026   13.8464 H   0  0  0  0  0  0  0  0  0  0  0  0
   16.5973    1.5687   12.9002 H   0  0  0  0  0  0  0  0  0  0  0  0
   18.8333   -0.1265   10.5795 H   0  0  0  0  0  0  0  0  0  0  0  0
   19.9505    0.6389   11.7550 H   0  0  0  0  0  0  0  0  0  0  0  0
   19.5951    1.4208   10.2068 H   0  0  0  0  0  0  0  0  0  0  0  0
   16.4345    3.1705   14.5428 H   0  0  0  0  0  0  0  0  0  0  0  0
   17.8162    3.5435   15.5127 H   0  0  0  0  0  0  0  0  0  0  0  0
   14.9493    3.1071   16.3114 H   0  0  0  0  0  0  0  0  0  0  0  0
   16.2551    3.8933   17.2188 H   0  0  0  0  0  0  0  0  0  0  0  0
   16.3278    1.8123   18.4380 H   0  0  0  0  0  0  0  0  0  0  0  0
   14.4270    1.0207   16.6028 H   0  0  0  0  0  0  0  0  0  0  0  0
   13.9369    0.1027   14.5967 H   0  0  0  0  0  0  0  0  0  0  0  0
   11.8853   -0.9671   13.7312 H   0  0  0  0  0  0  0  0  0  0  0  0
   11.0699   -3.0904   14.7032 H   0  0  0  0  0  0  0  0  0  0  0  0
   11.7408   -5.1087   16.7731 H   0  0  0  0  0  0  0  0  0  0  0  0
   13.6603   -5.0758   18.7332 H   0  0  0  0  0  0  0  0  0  0  0  0
   15.1432   -3.1156   18.2168 H   0  0  0  0  0  0  0  0  0  0  0  0
   18.0429    0.5304   16.9630 H   0  0  0  0  0  0  0  0  0  0  0  0
   18.4599    2.2054   16.9741 H   0  0  0  0  0  0  0  0  0  0  0  0
  1  2  1  0
  2  3  1  0
  3  4  1  0
  4  5  1  0
  5  6  1  0
  4  7  1  0
  7  8  2  0
  7  9  1  0
  9 10  1  0
 10 11  1  0
 11 12  1  0
 12 13  1  0
 13 14  1  0
 14 15  2  0
 14 16  1  0
 16 17  2  0
 17 18  1  0
 18 19  2  0
 19 20  1  0
 20 21  1  0
 21 22  2  0
 22 23  1  0
 23 24  1  0
 12 25  1  0
 25  9  1  0
 24 16  1  0
 24 20  2  0
  1 26  1  0
  1 27  1  0
  1 28  1  0
  3 29  1  0
  3 30  1  0
  4 31  1  0
  6 32  1  0
  6 33  1  0
  6 34  1  0
 10 35  1  0
 10 36  1  0
 11 37  1  0
 11 38  1  0
 12 39  1  0
 13 40  1  0
 17 41  1  0
 18 42  1  0
 19 43  1  0
 21 44  1  0
 22 45  1  0
 23 46  1  0
 25 47  1  0
 25 48  1  0
M  END
>  <Energy>  (74) 
169.44568688263337

>  <compound_id>  (74) 
53449

>  <target_id>  (74) 
1

>  <reference_id>  (74) 
97

>  <inspiration_ids>  (74) 
[124, 97]

>  <energy_score>  (74) 
42.24760350917336

>  <distance_score>  (74) 
2.8598512497328326

>  <path>  (74) 
/opt/xchem-fragalysis-2/maxwin/BulkDock/SCRATCH/511024/C53449-P97/C53449-P97.minimised.mol

>  <scratch_subdir>  (74) 
/opt/xchem-fragalysis-2/maxwin/BulkDock/SCRATCH/511024/C53449-P97

>  <fragmenstein_runtime>  (74) 
4.892618894577026

>  <fragmenstein_outcome>  (74) 
too moved

>  <fragmenstein_mode>  (74) 
expansion

>  <fragmenstein_error>  (74) 


$$$$
C53450-P124
     RDKit          3D

 48 50  0  0  0  0  0  0  0  0999 V2000
   19.1312   -3.3219   13.9571 C   0  0  0  0  0  0  0  0  0  0  0  0
   19.0287   -4.2256   15.0476 O   0  0  0  0  0  0  0  0  0  0  0  0
   20.1415   -4.0994   15.9471 C   0  0  0  0  0  0  0  0  0  0  0  0
   20.0707   -5.1009   17.1299 C   0  0  0  0  0  0  0  0  0  0  0  0
   21.4160   -5.3744   17.5262 O   0  0  0  0  0  0  0  0  0  0  0  0
   21.5117   -6.5165   18.3677 C   0  0  0  0  0  0  0  0  0  0  0  0
   19.2163   -4.4711   18.2754 C   0  0  0  0  0  0  0  0  0  0  0  0
   19.6301   -4.0881   19.2929 O   0  0  0  0  0  0  0  0  0  0  0  0
   17.8284   -4.4244   17.6564 N   0  0  0  0  0  0  0  0  0  0  0  0
   16.7216   -3.8635   17.9789 C   0  0  0  0  0  0  0  0  0  0  0  0
   17.1044   -2.2253   18.3649 C   0  0  0  0  0  0  0  0  0  0  0  0
   15.6769   -2.2876   18.4558 C   0  0  0  0  0  0  0  0  0  0  0  0
   15.1138   -1.9303   17.1775 N   0  0  0  0  0  0  0  0  0  0  0  0
   14.1083   -2.5632   16.3872 C   0  0  0  0  0  0  0  0  0  0  0  0
   13.4170   -3.5059   16.6157 O   0  0  0  0  0  0  0  0  0  0  0  0
   14.0702   -1.9170   15.0512 C   0  0  0  0  0  0  0  0  0  0  0  0
   15.2668   -1.8741   14.3227 C   0  0  0  0  0  0  0  0  0  0  0  0
   15.3871   -1.0406   13.2142 C   0  0  0  0  0  0  0  0  0  0  0  0
   14.3121   -0.1947   12.8947 C   0  0  0  0  0  0  0  0  0  0  0  0
   14.1312    0.8537   11.9533 C   0  0  0  0  0  0  0  0  0  0  0  0
   12.8753    1.3808   12.1477 C   0  0  0  0  0  0  0  0  0  0  0  0
   12.2677    0.6567   13.1379 N   0  0  0  0  0  0  0  0  0  0  0  0
   13.1190   -0.3197   13.6051 C   0  0  0  0  0  0  0  0  0  0  0  0
   12.9300   -1.2485   14.6307 C   0  0  0  0  0  0  0  0  0  0  0  0
   16.2087   -3.8216   18.5878 C   0  0  0  0  0  0  0  0  0  0  0  0
   18.2667   -3.4689   13.3046 H   0  0  0  0  0  0  0  0  0  0  0  0
   20.0401   -3.5165   13.3800 H   0  0  0  0  0  0  0  0  0  0  0  0
   19.1252   -2.2882   14.3157 H   0  0  0  0  0  0  0  0  0  0  0  0
   20.1847   -3.0695   16.3238 H   0  0  0  0  0  0  0  0  0  0  0  0
   21.0617   -4.2807   15.3772 H   0  0  0  0  0  0  0  0  0  0  0  0
   19.5907   -6.0306   16.7969 H   0  0  0  0  0  0  0  0  0  0  0  0
   20.9510   -6.3761   19.2957 H   0  0  0  0  0  0  0  0  0  0  0  0
   21.1540   -7.4083   17.8439 H   0  0  0  0  0  0  0  0  0  0  0  0
   22.5649   -6.6653   18.6214 H   0  0  0  0  0  0  0  0  0  0  0  0
   15.9629   -4.4174   17.0185 H   0  0  0  0  0  0  0  0  0  0  0  0
   16.8862   -3.3755   16.8648 H   0  0  0  0  0  0  0  0  0  0  0  0
   17.6633   -2.1384   19.3070 H   0  0  0  0  0  0  0  0  0  0  0  0
   17.5816   -1.6656   17.5509 H   0  0  0  0  0  0  0  0  0  0  0  0
   15.1709   -1.8657   19.3242 H   0  0  0  0  0  0  0  0  0  0  0  0
   15.4405   -1.0968   16.6934 H   0  0  0  0  0  0  0  0  0  0  0  0
   16.1211   -2.4746   14.6309 H   0  0  0  0  0  0  0  0  0  0  0  0
   16.3176   -0.9927   12.6572 H   0  0  0  0  0  0  0  0  0  0  0  0
   14.8577    1.2094   11.2350 H   0  0  0  0  0  0  0  0  0  0  0  0
   12.3603    2.2017   11.6681 H   0  0  0  0  0  0  0  0  0  0  0  0
   11.3624    0.8551   13.5481 H   0  0  0  0  0  0  0  0  0  0  0  0
   11.9860   -1.3534   15.1450 H   0  0  0  0  0  0  0  0  0  0  0  0
   15.2735   -4.6270   18.6767 H   0  0  0  0  0  0  0  0  0  0  0  0
   16.4999   -3.9574   19.7755 H   0  0  0  0  0  0  0  0  0  0  0  0
  1  2  1  0
  2  3  1  0
  3  4  1  0
  4  5  1  0
  5  6  1  0
  4  7  1  0
  7  8  2  0
  7  9  1  0
  9 10  1  0
 10 11  1  0
 11 12  1  0
 12 13  1  0
 13 14  1  0
 14 15  2  0
 14 16  1  0
 16 17  2  0
 17 18  1  0
 18 19  2  0
 19 20  1  0
 20 21  2  0
 21 22  1  0
 22 23  1  0
 23 24  2  0
 12 25  1  0
 25  9  1  0
 24 16  1  0
 23 19  1  0
  1 26  1  0
  1 27  1  0
  1 28  1  0
  3 29  1  0
  3 30  1  0
  4 31  1  0
  6 32  1  0
  6 33  1  0
  6 34  1  0
 10 35  1  0
 10 36  1  0
 11 37  1  0
 11 38  1  0
 12 39  1  0
 13 40  1  0
 17 41  1  0
 18 42  1  0
 20 43  1  0
 21 44  1  0
 22 45  1  0
 24 46  1  0
 25 47  1  0
 25 48  1  0
M  END
>  <Energy>  (75) 
864.31155428125294

>  <compound_id>  (75) 
53450

>  <target_id>  (75) 
1

>  <reference_id>  (75) 
124

>  <inspiration_ids>  (75) 
[124, 97]

>  <energy_score>  (75) 
742.8542295058522

>  <distance_score>  (75) 
3.7427993201446217

>  <path>  (75) 
/opt/xchem-fragalysis-2/maxwin/BulkDock/SCRATCH/511024/C53450-P124/C53450-P124.minimised.mol

>  <scratch_subdir>  (75) 
/opt/xchem-fragalysis-2/maxwin/BulkDock/SCRATCH/511024/C53450-P124

>  <fragmenstein_runtime>  (75) 
7.8754801750183105

>  <fragmenstein_outcome>  (75) 
too moved

>  <fragmenstein_mode>  (75) 
expansion

>  <fragmenstein_error>  (75) 


$$$$
C53450-P97
     RDKit          3D

 48 50  0  0  0  0  0  0  0  0999 V2000
   16.9717   -1.9696   11.7936 C   0  0  0  0  0  0  0  0  0  0  0  0
   17.2927   -2.6256   13.0109 O   0  0  0  0  0  0  0  0  0  0  0  0
   18.4110   -2.0164   13.6747 C   0  0  0  0  0  0  0  0  0  0  0  0
   18.7263   -2.8094   14.9517 C   0  0  0  0  0  0  0  0  0  0  0  0
   19.6900   -3.8465   14.7257 O   0  0  0  0  0  0  0  0  0  0  0  0
   19.1428   -4.9619   14.0371 C   0  0  0  0  0  0  0  0  0  0  0  0
   19.2365   -1.8577   16.0604 C   0  0  0  0  0  0  0  0  0  0  0  0
   19.5274   -0.7427   15.8922 O   0  0  0  0  0  0  0  0  0  0  0  0
   19.1432   -2.7279   17.3470 N   0  0  0  0  0  0  0  0  0  0  0  0
   19.7292   -2.1398   19.1403 C   0  0  0  0  0  0  0  0  0  0  0  0
   18.6022   -1.9631   20.3246 C   0  0  0  0  0  0  0  0  0  0  0  0
   17.9673   -3.0363   19.5954 C   0  0  0  0  0  0  0  0  0  0  0  0
   16.7063   -2.9062   18.9261 N   0  0  0  0  0  0  0  0  0  0  0  0
   15.7605   -1.8430   18.9126 C   0  0  0  0  0  0  0  0  0  0  0  0
   15.7331   -0.8140   19.5192 O   0  0  0  0  0  0  0  0  0  0  0  0
   14.7018   -2.0570   17.8851 C   0  0  0  0  0  0  0  0  0  0  0  0
   14.0328   -3.2784   17.7552 C   0  0  0  0  0  0  0  0  0  0  0  0
   13.0659   -3.4479   16.7571 C   0  0  0  0  0  0  0  0  0  0  0  0
   12.7752   -2.3769   15.8872 C   0  0  0  0  0  0  0  0  0  0  0  0
   11.8768   -2.1974   14.8044 C   0  0  0  0  0  0  0  0  0  0  0  0
   12.0317   -0.9130   14.3341 C   0  0  0  0  0  0  0  0  0  0  0  0
   13.0044   -0.3078   15.0753 N   0  0  0  0  0  0  0  0  0  0  0  0
   13.4589   -1.1723   16.0430 C   0  0  0  0  0  0  0  0  0  0  0  0
   14.4227   -0.9791   17.0323 C   0  0  0  0  0  0  0  0  0  0  0  0
   19.2367   -2.4844   18.6039 C   0  0  0  0  0  0  0  0  0  0  0  0
   16.1127   -2.4757   11.3446 H   0  0  0  0  0  0  0  0  0  0  0  0
   17.8129   -2.0246   11.0961 H   0  0  0  0  0  0  0  0  0  0  0  0
   16.7034   -0.9253   11.9797 H   0  0  0  0  0  0  0  0  0  0  0  0
   18.1273   -0.9828   13.9007 H   0  0  0  0  0  0  0  0  0  0  0  0
   19.2743   -2.0152   12.9993 H   0  0  0  0  0  0  0  0  0  0  0  0
   17.7980   -3.2596   15.3324 H   0  0  0  0  0  0  0  0  0  0  0  0
   19.8996   -5.7510   14.0148 H   0  0  0  0  0  0  0  0  0  0  0  0
   18.2589   -5.3482   14.5536 H   0  0  0  0  0  0  0  0  0  0  0  0
   18.9002   -4.6993   13.0043 H   0  0  0  0  0  0  0  0  0  0  0  0
   20.7218   -2.7417   19.5555 H   0  0  0  0  0  0  0  0  0  0  0  0
   20.2771   -1.0626   19.0096 H   0  0  0  0  0  0  0  0  0  0  0  0
   19.0225   -2.2149   21.3013 H   0  0  0  0  0  0  0  0  0  0  0  0
   18.1327   -0.9758   20.3078 H   0  0  0  0  0  0  0  0  0  0  0  0
   18.1290   -4.0480   19.9860 H   0  0  0  0  0  0  0  0  0  0  0  0
   16.4498   -3.5853   18.2181 H   0  0  0  0  0  0  0  0  0  0  0  0
   14.2276   -4.0935   18.4469 H   0  0  0  0  0  0  0  0  0  0  0  0
   12.5312   -4.3897   16.6661 H   0  0  0  0  0  0  0  0  0  0  0  0
   11.1849   -2.9284   14.4060 H   0  0  0  0  0  0  0  0  0  0  0  0
   11.5337   -0.3878   13.5307 H   0  0  0  0  0  0  0  0  0  0  0  0
   13.3423    0.6355   14.9404 H   0  0  0  0  0  0  0  0  0  0  0  0
   14.9513   -0.0356   17.1361 H   0  0  0  0  0  0  0  0  0  0  0  0
   19.3971   -3.7223   18.4726 H   0  0  0  0  0  0  0  0  0  0  0  0
   18.3944   -1.6197   18.1766 H   0  0  0  0  0  0  0  0  0  0  0  0
  1  2  1  0
  2  3  1  0
  3  4  1  0
  4  5  1  0
  5  6  1  0
  4  7  1  0
  7  8  2  0
  7  9  1  0
  9 10  1  0
 10 11  1  0
 11 12  1  0
 12 13  1  0
 13 14  1  0
 14 15  2  0
 14 16  1  0
 16 17  2  0
 17 18  1  0
 18 19  2  0
 19 20  1  0
 20 21  2  0
 21 22  1  0
 22 23  1  0
 23 24  2  0
 12 25  1  0
 25  9  1  0
 24 16  1  0
 23 19  1  0
  1 26  1  0
  1 27  1  0
  1 28  1  0
  3 29  1  0
  3 30  1  0
  4 31  1  0
  6 32  1  0
  6 33  1  0
  6 34  1  0
 10 35  1  0
 10 36  1  0
 11 37  1  0
 11 38  1  0
 12 39  1  0
 13 40  1  0
 17 41  1  0
 18 42  1  0
 20 43  1  0
 21 44  1  0
 22 45  1  0
 24 46  1  0
 25 47  1  0
 25 48  1  0
M  END
>  <Energy>  (76) 
863.71482101580398

>  <compound_id>  (76) 
53450

>  <target_id>  (76) 
1

>  <reference_id>  (76) 
97

>  <inspiration_ids>  (76) 
[124, 97]

>  <energy_score>  (76) 
742.2574962404094

>  <distance_score>  (76) 
3.5011573765845054

>  <path>  (76) 
/opt/xchem-fragalysis-2/maxwin/BulkDock/SCRATCH/511024/C53450-P97/C53450-P97.minimised.mol

>  <scratch_subdir>  (76) 
/opt/xchem-fragalysis-2/maxwin/BulkDock/SCRATCH/511024/C53450-P97

>  <fragmenstein_runtime>  (76) 
8.73261284828186

>  <fragmenstein_outcome>  (76) 
too moved

>  <fragmenstein_mode>  (76) 
expansion

>  <fragmenstein_error>  (76) 


$$$$
C53451-P124
     RDKit          3D

 45 47  0  0  0  0  0  0  0  0999 V2000
   15.3057   -1.5578   23.3482 C   0  0  0  0  0  0  0  0  0  0  0  0
   16.5208   -1.3448   22.6415 O   0  0  0  0  0  0  0  0  0  0  0  0
   17.6627   -1.7770   23.3917 C   0  0  0  0  0  0  0  0  0  0  0  0
   18.9386   -1.6850   22.5291 C   0  0  0  0  0  0  0  0  0  0  0  0
   19.1102   -0.3932   21.9398 O   0  0  0  0  0  0  0  0  0  0  0  0
   19.4748    0.6162   22.8668 C   0  0  0  0  0  0  0  0  0  0  0  0
   18.9211   -2.8844   21.5274 C   0  0  0  0  0  0  0  0  0  0  0  0
   18.7715   -3.9936   21.8993 O   0  0  0  0  0  0  0  0  0  0  0  0
   19.1255   -2.3366   20.1227 N   0  0  0  0  0  0  0  0  0  0  0  0
   19.2982   -3.0467   18.8136 C   0  0  0  0  0  0  0  0  0  0  0  0
   18.1779   -4.0211   18.4997 C   0  0  0  0  0  0  0  0  0  0  0  0
   17.0350   -3.2316   19.0282 C   0  0  0  0  0  0  0  0  0  0  0  0
   16.0728   -2.9788   17.9974 N   0  0  0  0  0  0  0  0  0  0  0  0
   14.6731   -3.5682   17.7733 C   0  0  0  0  0  0  0  0  0  0  0  0
   14.1087   -4.4085   18.3457 O   0  0  0  0  0  0  0  0  0  0  0  0
   14.0583   -2.9651   16.5847 C   0  0  0  0  0  0  0  0  0  0  0  0
   12.7362   -3.1538   16.1629 C   0  0  0  0  0  0  0  0  0  0  0  0
   12.5711   -2.2209   15.1338 C   0  0  0  0  0  0  0  0  0  0  0  0
   11.5682   -1.7111   14.3938 O   0  0  0  0  0  0  0  0  0  0  0  0
   12.1477   -0.6931   13.6930 C   0  0  0  0  0  0  0  0  0  0  0  0
   13.5040   -0.5975   13.8893 C   0  0  0  0  0  0  0  0  0  0  0  0
   13.7225   -1.5815   14.8668 C   0  0  0  0  0  0  0  0  0  0  0  0
   14.6766   -2.1215   15.6706 N   0  0  0  0  0  0  0  0  0  0  0  0
   17.8065   -1.9978   19.4701 C   0  0  0  0  0  0  0  0  0  0  0  0
   14.4866   -1.1567   22.7470 H   0  0  0  0  0  0  0  0  0  0  0  0
   15.1378   -2.6276   23.5026 H   0  0  0  0  0  0  0  0  0  0  0  0
   15.3234   -1.0347   24.3090 H   0  0  0  0  0  0  0  0  0  0  0  0
   17.7558   -1.1258   24.2677 H   0  0  0  0  0  0  0  0  0  0  0  0
   17.5035   -2.8013   23.7486 H   0  0  0  0  0  0  0  0  0  0  0  0
   19.8116   -1.8862   23.1654 H   0  0  0  0  0  0  0  0  0  0  0  0
   18.6550    0.8276   23.5582 H   0  0  0  0  0  0  0  0  0  0  0  0
   19.6896    1.5308   22.3072 H   0  0  0  0  0  0  0  0  0  0  0  0
   20.3748    0.3316   23.4204 H   0  0  0  0  0  0  0  0  0  0  0  0
   19.5243   -2.3409   17.9965 H   0  0  0  0  0  0  0  0  0  0  0  0
   20.2200   -3.6322   18.9321 H   0  0  0  0  0  0  0  0  0  0  0  0
   18.3024   -4.9508   19.0664 H   0  0  0  0  0  0  0  0  0  0  0  0
   18.1383   -4.2685   17.4343 H   0  0  0  0  0  0  0  0  0  0  0  0
   16.5430   -3.7451   19.8608 H   0  0  0  0  0  0  0  0  0  0  0  0
   16.2792   -2.3214   17.2699 H   0  0  0  0  0  0  0  0  0  0  0  0
   12.0043   -3.8104   16.6122 H   0  0  0  0  0  0  0  0  0  0  0  0
   11.4443   -0.1054   13.1201 H   0  0  0  0  0  0  0  0  0  0  0  0
   14.1848    0.1111   13.4444 H   0  0  0  0  0  0  0  0  0  0  0  0
   15.6492   -1.8561   15.5920 H   0  0  0  0  0  0  0  0  0  0  0  0
   17.9403   -1.2341   18.6827 H   0  0  0  0  0  0  0  0  0  0  0  0
   17.1972   -1.4766   20.2179 H   0  0  0  0  0  0  0  0  0  0  0  0
  1  2  1  0
  2  3  1  0
  3  4  1  0
  4  5  1  0
  5  6  1  0
  4  7  1  0
  7  8  2  0
  7  9  1  0
  9 10  1  0
 10 11  1  0
 11 12  1  0
 12 13  1  0
 13 14  1  0
 14 15  2  0
 14 16  1  0
 16 17  2  0
 17 18  1  0
 18 19  1  0
 19 20  1  0
 20 21  2  0
 21 22  1  0
 22 23  1  0
 12 24  1  0
 24  9  1  0
 23 16  1  0
 22 18  2  0
  1 25  1  0
  1 26  1  0
  1 27  1  0
  3 28  1  0
  3 29  1  0
  4 30  1  0
  6 31  1  0
  6 32  1  0
  6 33  1  0
 10 34  1  0
 10 35  1  0
 11 36  1  0
 11 37  1  0
 12 38  1  0
 13 39  1  0
 17 40  1  0
 20 41  1  0
 21 42  1  0
 23 43  1  0
 24 44  1  0
 24 45  1  0
M  END
>  <Energy>  (77) 
138.7335925934417

>  <compound_id>  (77) 
53451

>  <target_id>  (77) 
1

>  <reference_id>  (77) 
124

>  <inspiration_ids>  (77) 
[124, 97]

>  <energy_score>  (77) 
51.75979562302558

>  <distance_score>  (77) 
3.43178842195457

>  <path>  (77) 
/opt/xchem-fragalysis-2/maxwin/BulkDock/SCRATCH/511024/C53451-P124/C53451-P124.minimised.mol

>  <scratch_subdir>  (77) 
/opt/xchem-fragalysis-2/maxwin/BulkDock/SCRATCH/511024/C53451-P124

>  <fragmenstein_runtime>  (77) 
3.602876901626587

>  <fragmenstein_outcome>  (77) 
too moved

>  <fragmenstein_mode>  (77) 
expansion

>  <fragmenstein_error>  (77) 


$$$$
C53451-P97
     RDKit          3D

 45 47  0  0  0  0  0  0  0  0999 V2000
   16.5098   -9.9577   19.3714 C   0  0  0  0  0  0  0  0  0  0  0  0
   16.9550   -8.6623   19.7505 O   0  0  0  0  0  0  0  0  0  0  0  0
   18.3275   -8.6673   20.1570 C   0  0  0  0  0  0  0  0  0  0  0  0
   18.8052   -7.2282   20.4294 C   0  0  0  0  0  0  0  0  0  0  0  0
   17.9444   -6.5226   21.3274 O   0  0  0  0  0  0  0  0  0  0  0  0
   17.9662   -7.0128   22.6572 C   0  0  0  0  0  0  0  0  0  0  0  0
   19.0486   -6.5267   19.0528 C   0  0  0  0  0  0  0  0  0  0  0  0
   19.5811   -7.0774   18.1559 O   0  0  0  0  0  0  0  0  0  0  0  0
   18.5734   -5.0872   19.1806 N   0  0  0  0  0  0  0  0  0  0  0  0
   18.7295   -3.9260   18.2548 C   0  0  0  0  0  0  0  0  0  0  0  0
   18.2598   -4.2271   16.8479 C   0  0  0  0  0  0  0  0  0  0  0  0
   17.0044   -4.9531   17.1857 C   0  0  0  0  0  0  0  0  0  0  0  0
   15.8645   -4.2413   16.6784 N   0  0  0  0  0  0  0  0  0  0  0  0
   14.4134   -4.2013   17.1731 C   0  0  0  0  0  0  0  0  0  0  0  0
   13.8907   -4.7968   18.0234 O   0  0  0  0  0  0  0  0  0  0  0  0
   13.7251   -3.1505   16.4312 C   0  0  0  0  0  0  0  0  0  0  0  0
   12.3992   -3.1180   16.0047 C   0  0  0  0  0  0  0  0  0  0  0  0
   12.3040   -1.9157   15.2908 C   0  0  0  0  0  0  0  0  0  0  0  0
   11.3735   -1.2278   14.5977 O   0  0  0  0  0  0  0  0  0  0  0  0
   12.0335   -0.1363   14.1103 C   0  0  0  0  0  0  0  0  0  0  0  0
   13.3426   -0.0723   14.5277 C   0  0  0  0  0  0  0  0  0  0  0  0
   13.4693   -1.2431   15.2983 C   0  0  0  0  0  0  0  0  0  0  0  0
   14.3387   -1.9595   16.0611 N   0  0  0  0  0  0  0  0  0  0  0  0
   17.1368   -4.9375   18.7084 C   0  0  0  0  0  0  0  0  0  0  0  0
   15.4386   -9.9101   19.1695 H   0  0  0  0  0  0  0  0  0  0  0  0
   17.0261  -10.2849   18.4643 H   0  0  0  0  0  0  0  0  0  0  0  0
   16.6770  -10.6753   20.1805 H   0  0  0  0  0  0  0  0  0  0  0  0
   18.4074   -9.2654   21.0715 H   0  0  0  0  0  0  0  0  0  0  0  0
   18.9403   -9.1505   19.3870 H   0  0  0  0  0  0  0  0  0  0  0  0
   19.8053   -7.2700   20.8828 H   0  0  0  0  0  0  0  0  0  0  0  0
   18.9896   -7.0575   23.0416 H   0  0  0  0  0  0  0  0  0  0  0  0
   17.4940   -7.9968   22.7185 H   0  0  0  0  0  0  0  0  0  0  0  0
   17.3922   -6.3241   23.2835 H   0  0  0  0  0  0  0  0  0  0  0  0
   18.3223   -2.9951   18.6847 H   0  0  0  0  0  0  0  0  0  0  0  0
   19.8131   -3.7520   18.2069 H   0  0  0  0  0  0  0  0  0  0  0  0
   18.9664   -4.8911   16.3372 H   0  0  0  0  0  0  0  0  0  0  0  0
   18.1477   -3.3172   16.2505 H   0  0  0  0  0  0  0  0  0  0  0  0
   16.9905   -5.9685   16.7773 H   0  0  0  0  0  0  0  0  0  0  0  0
   15.9595   -3.6503   15.8635 H   0  0  0  0  0  0  0  0  0  0  0  0
   11.6488   -3.8796   16.1634 H   0  0  0  0  0  0  0  0  0  0  0  0
   11.4210    0.5060   13.4910 H   0  0  0  0  0  0  0  0  0  0  0  0
   14.0689    0.6933   14.3019 H   0  0  0  0  0  0  0  0  0  0  0  0
   15.2769   -1.6538   16.2876 H   0  0  0  0  0  0  0  0  0  0  0  0
   16.6542   -4.0757   19.2021 H   0  0  0  0  0  0  0  0  0  0  0  0
   16.5823   -5.8038   19.0958 H   0  0  0  0  0  0  0  0  0  0  0  0
  1  2  1  0
  2  3  1  0
  3  4  1  0
  4  5  1  0
  5  6  1  0
  4  7  1  0
  7  8  2  0
  7  9  1  0
  9 10  1  0
 10 11  1  0
 11 12  1  0
 12 13  1  0
 13 14  1  0
 14 15  2  0
 14 16  1  0
 16 17  2  0
 17 18  1  0
 18 19  1  0
 19 20  1  0
 20 21  2  0
 21 22  1  0
 22 23  1  0
 12 24  1  0
 24  9  1  0
 23 16  1  0
 22 18  2  0
  1 25  1  0
  1 26  1  0
  1 27  1  0
  3 28  1  0
  3 29  1  0
  4 30  1  0
  6 31  1  0
  6 32  1  0
  6 33  1  0
 10 34  1  0
 10 35  1  0
 11 36  1  0
 11 37  1  0
 12 38  1  0
 13 39  1  0
 17 40  1  0
 20 41  1  0
 21 42  1  0
 23 43  1  0
 24 44  1  0
 24 45  1  0
M  END
>  <Energy>  (78) 
135.3671548845449

>  <compound_id>  (78) 
53451

>  <target_id>  (78) 
1

>  <reference_id>  (78) 
97

>  <inspiration_ids>  (78) 
[124, 97]

>  <energy_score>  (78) 
48.39335791412469

>  <distance_score>  (78) 
4.241007764389343

>  <path>  (78) 
/opt/xchem-fragalysis-2/maxwin/BulkDock/SCRATCH/511024/C53451-P97/C53451-P97.minimised.mol

>  <scratch_subdir>  (78) 
/opt/xchem-fragalysis-2/maxwin/BulkDock/SCRATCH/511024/C53451-P97

>  <fragmenstein_runtime>  (78) 
4.2980101108551025

>  <fragmenstein_outcome>  (78) 
too moved

>  <fragmenstein_mode>  (78) 
expansion

>  <fragmenstein_error>  (78) 


$$$$
C53456-P124
     RDKit          3D

 40 43  0  0  0  0  0  0  0  0999 V2000
   13.9001   -4.2130   20.3220 C   0  0  0  0  0  0  0  0  0  0  0  0
   14.6501   -3.0348   20.0206 O   0  0  0  0  0  0  0  0  0  0  0  0
   15.6417   -3.2275   19.1073 C   0  0  0  0  0  0  0  0  0  0  0  0
   15.8852   -4.2976   18.5611 O   0  0  0  0  0  0  0  0  0  0  0  0
   16.4696   -1.9558   18.9439 C   0  0  0  0  0  0  0  0  0  0  0  0
   15.7018   -0.6560   18.7794 C   0  0  0  0  0  0  0  0  0  0  0  0
   16.7391    0.3263   18.1895 C   0  0  0  0  0  0  0  0  0  0  0  0
   16.1830    1.2202   17.1948 N   0  0  0  0  0  0  0  0  0  0  0  0
   16.3927    1.1887   15.8393 C   0  0  0  0  0  0  0  0  0  0  0  0
   15.0831    1.2510   15.4132 C   0  0  0  0  0  0  0  0  0  0  0  0
   14.4556    0.0303   14.6592 C   0  0  0  0  0  0  0  0  0  0  0  0
   15.0856   -1.1990   14.6988 C   0  0  0  0  0  0  0  0  0  0  0  0
   14.0659   -2.0525   15.1869 C   0  0  0  0  0  0  0  0  0  0  0  0
   14.0680   -3.2164   15.9773 C   0  0  0  0  0  0  0  0  0  0  0  0
   12.8518   -3.8188   16.2713 C   0  0  0  0  0  0  0  0  0  0  0  0
   11.6778   -3.3258   15.7139 C   0  0  0  0  0  0  0  0  0  0  0  0
   11.6418   -2.1520   14.9660 C   0  0  0  0  0  0  0  0  0  0  0  0
   12.8548   -1.4965   14.7846 C   0  0  0  0  0  0  0  0  0  0  0  0
   13.1370   -0.2046   14.3621 N   0  0  0  0  0  0  0  0  0  0  0  0
   14.3893    2.0064   16.3130 N   0  0  0  0  0  0  0  0  0  0  0  0
   15.0782    1.9505   17.4612 N   0  0  0  0  0  0  0  0  0  0  0  0
   17.8518   -0.6117   17.6861 C   0  0  0  0  0  0  0  0  0  0  0  0
   17.2552   -1.9496   17.6896 N   0  0  0  0  0  0  0  0  0  0  0  0
   14.5615   -5.0404   20.5991 H   0  0  0  0  0  0  0  0  0  0  0  0
   13.2773   -4.4884   19.4671 H   0  0  0  0  0  0  0  0  0  0  0  0
   13.2514   -4.0024   21.1750 H   0  0  0  0  0  0  0  0  0  0  0  0
   17.1460   -1.9065   19.8080 H   0  0  0  0  0  0  0  0  0  0  0  0
   14.8417   -0.7942   18.1136 H   0  0  0  0  0  0  0  0  0  0  0  0
   15.3150   -0.2898   19.7369 H   0  0  0  0  0  0  0  0  0  0  0  0
   17.1412    0.9721   18.9803 H   0  0  0  0  0  0  0  0  0  0  0  0
   17.2362    0.6883   15.3943 H   0  0  0  0  0  0  0  0  0  0  0  0
   16.1371   -1.3773   14.8829 H   0  0  0  0  0  0  0  0  0  0  0  0
   15.0033   -3.6518   16.3104 H   0  0  0  0  0  0  0  0  0  0  0  0
   12.8246   -4.7339   16.8509 H   0  0  0  0  0  0  0  0  0  0  0  0
   10.7635   -3.8799   15.8515 H   0  0  0  0  0  0  0  0  0  0  0  0
   10.7094   -1.7427   14.5981 H   0  0  0  0  0  0  0  0  0  0  0  0
   12.4275    0.5181   14.3141 H   0  0  0  0  0  0  0  0  0  0  0  0
   18.6803   -0.5955   18.4075 H   0  0  0  0  0  0  0  0  0  0  0  0
   18.2965   -0.3806   16.7187 H   0  0  0  0  0  0  0  0  0  0  0  0
   17.9615   -2.6872   17.7148 H   0  0  0  0  0  0  0  0  0  0  0  0
  1  2  1  0
  2  3  1  0
  3  4  2  0
  3  5  1  0
  5  6  1  0
  6  7  1  0
  7  8  1  0
  8  9  1  0
  9 10  2  0
 10 11  1  0
 11 12  2  0
 12 13  1  0
 13 14  2  0
 14 15  1  0
 15 16  2  0
 16 17  1  0
 17 18  2  0
 18 19  1  0
 10 20  1  0
 20 21  2  0
  7 22  1  0
 22 23  1  0
 23  5  1  0
 21  8  1  0
 19 11  1  0
 18 13  1  0
  1 24  1  0
  1 25  1  0
  1 26  1  0
  5 27  1  0
  6 28  1  0
  6 29  1  0
  7 30  1  0
  9 31  1  0
 12 32  1  0
 14 33  1  0
 15 34  1  0
 16 35  1  0
 17 36  1  0
 19 37  1  0
 22 38  1  0
 22 39  1  0
 23 40  1  0
M  END
>  <Energy>  (79) 
114.804957360396

>  <compound_id>  (79) 
53456

>  <target_id>  (79) 
1

>  <reference_id>  (79) 
124

>  <inspiration_ids>  (79) 
[124, 97]

>  <energy_score>  (79) 
29.766358080189917

>  <distance_score>  (79) 
2.749997930483288

>  <path>  (79) 
/opt/xchem-fragalysis-2/maxwin/BulkDock/SCRATCH/511024/C53456-P124/C53456-P124.minimised.mol

>  <scratch_subdir>  (79) 
/opt/xchem-fragalysis-2/maxwin/BulkDock/SCRATCH/511024/C53456-P124

>  <fragmenstein_runtime>  (79) 
8.360689163208008

>  <fragmenstein_outcome>  (79) 
too moved

>  <fragmenstein_mode>  (79) 
expansion

>  <fragmenstein_error>  (79) 


$$$$
C53456-P97
     RDKit          3D

 40 43  0  0  0  0  0  0  0  0999 V2000
   17.0743   -5.9718   17.8435 C   0  0  0  0  0  0  0  0  0  0  0  0
   17.3586   -4.7202   17.2186 O   0  0  0  0  0  0  0  0  0  0  0  0
   17.2412   -3.6456   18.0546 C   0  0  0  0  0  0  0  0  0  0  0  0
   16.9177   -3.7087   19.2335 O   0  0  0  0  0  0  0  0  0  0  0  0
   17.6607   -2.3719   17.3276 C   0  0  0  0  0  0  0  0  0  0  0  0
   17.4179   -1.1049   18.1293 C   0  0  0  0  0  0  0  0  0  0  0  0
   17.4682    0.0182   17.0760 C   0  0  0  0  0  0  0  0  0  0  0  0
   16.6206    1.1648   17.3573 N   0  0  0  0  0  0  0  0  0  0  0  0
   15.8682    1.8746   16.4204 C   0  0  0  0  0  0  0  0  0  0  0  0
   14.6348    1.6179   16.9914 C   0  0  0  0  0  0  0  0  0  0  0  0
   13.7951    0.4726   16.3612 C   0  0  0  0  0  0  0  0  0  0  0  0
   13.3424    0.1872   15.1018 C   0  0  0  0  0  0  0  0  0  0  0  0
   12.8101   -1.1375   15.1718 C   0  0  0  0  0  0  0  0  0  0  0  0
   12.1230   -1.9725   14.2994 C   0  0  0  0  0  0  0  0  0  0  0  0
   11.6789   -3.2136   14.7513 C   0  0  0  0  0  0  0  0  0  0  0  0
   12.0223   -3.7054   16.0001 C   0  0  0  0  0  0  0  0  0  0  0  0
   12.8071   -2.9520   16.8393 C   0  0  0  0  0  0  0  0  0  0  0  0
   13.0927   -1.6563   16.4242 C   0  0  0  0  0  0  0  0  0  0  0  0
   13.6582   -0.6474   17.1240 N   0  0  0  0  0  0  0  0  0  0  0  0
   14.7999    1.6216   18.3567 N   0  0  0  0  0  0  0  0  0  0  0  0
   16.0729    1.3330   18.5836 N   0  0  0  0  0  0  0  0  0  0  0  0
   17.1534   -0.7329   15.7570 C   0  0  0  0  0  0  0  0  0  0  0  0
   16.8343   -2.1107   16.1353 N   0  0  0  0  0  0  0  0  0  0  0  0
   16.0853   -5.9587   18.3110 H   0  0  0  0  0  0  0  0  0  0  0  0
   17.8461   -6.2063   18.5830 H   0  0  0  0  0  0  0  0  0  0  0  0
   17.0864   -6.7464   17.0721 H   0  0  0  0  0  0  0  0  0  0  0  0
   18.7218   -2.4610   17.0615 H   0  0  0  0  0  0  0  0  0  0  0  0
   16.4461   -1.1555   18.6367 H   0  0  0  0  0  0  0  0  0  0  0  0
   18.1808   -0.9596   18.9023 H   0  0  0  0  0  0  0  0  0  0  0  0
   18.4880    0.4209   17.0238 H   0  0  0  0  0  0  0  0  0  0  0  0
   16.1801    1.8893   15.3871 H   0  0  0  0  0  0  0  0  0  0  0  0
   13.3495    0.8424   14.2422 H   0  0  0  0  0  0  0  0  0  0  0  0
   11.8695   -1.6352   13.3026 H   0  0  0  0  0  0  0  0  0  0  0  0
   11.0833   -3.8152   14.0777 H   0  0  0  0  0  0  0  0  0  0  0  0
   11.6923   -4.6855   16.3286 H   0  0  0  0  0  0  0  0  0  0  0  0
   13.0981   -3.3271   17.8153 H   0  0  0  0  0  0  0  0  0  0  0  0
   14.0310   -0.7260   18.0613 H   0  0  0  0  0  0  0  0  0  0  0  0
   16.3434   -0.3255   15.1525 H   0  0  0  0  0  0  0  0  0  0  0  0
   18.0524   -0.7335   15.1276 H   0  0  0  0  0  0  0  0  0  0  0  0
   17.0377   -2.7780   15.3893 H   0  0  0  0  0  0  0  0  0  0  0  0
  1  2  1  0
  2  3  1  0
  3  4  2  0
  3  5  1  0
  5  6  1  0
  6  7  1  0
  7  8  1  0
  8  9  1  0
  9 10  2  0
 10 11  1  0
 11 12  2  0
 12 13  1  0
 13 14  2  0
 14 15  1  0
 15 16  2  0
 16 17  1  0
 17 18  2  0
 18 19  1  0
 10 20  1  0
 20 21  2  0
  7 22  1  0
 22 23  1  0
 23  5  1  0
 21  8  1  0
 19 11  1  0
 18 13  1  0
  1 24  1  0
  1 25  1  0
  1 26  1  0
  5 27  1  0
  6 28  1  0
  6 29  1  0
  7 30  1  0
  9 31  1  0
 12 32  1  0
 14 33  1  0
 15 34  1  0
 16 35  1  0
 17 36  1  0
 19 37  1  0
 22 38  1  0
 22 39  1  0
 23 40  1  0
M  END
>  <Energy>  (80) 
114.54732545135056

>  <compound_id>  (80) 
53456

>  <target_id>  (80) 
1

>  <reference_id>  (80) 
97

>  <inspiration_ids>  (80) 
[124, 97]

>  <energy_score>  (80) 
29.508726171144303

>  <distance_score>  (80) 
2.406954693408755

>  <path>  (80) 
/opt/xchem-fragalysis-2/maxwin/BulkDock/SCRATCH/511024/C53456-P97/C53456-P97.minimised.mol

>  <scratch_subdir>  (80) 
/opt/xchem-fragalysis-2/maxwin/BulkDock/SCRATCH/511024/C53456-P97

>  <fragmenstein_runtime>  (80) 
7.793240308761597

>  <fragmenstein_outcome>  (80) 
too moved

>  <fragmenstein_mode>  (80) 
expansion

>  <fragmenstein_error>  (80) 


$$$$
C53457-P124
     RDKit          3D

 39 42  0  0  0  0  0  0  0  0999 V2000
   20.1807    6.4443   19.1942 C   0  0  0  0  0  0  0  0  0  0  0  0
   19.5025    5.2701   19.8668 C   0  0  0  0  0  0  0  0  0  0  0  0
   19.8170    4.8780   20.9295 O   0  0  0  0  0  0  0  0  0  0  0  0
   18.4276    4.7778   18.9187 N   0  0  0  0  0  0  0  0  0  0  0  0
   18.9680    3.7277   17.9756 C   0  0  0  0  0  0  0  0  0  0  0  0
   17.9524    3.3576   16.9115 C   0  0  0  0  0  0  0  0  0  0  0  0
   16.7318    3.3462   17.7736 C   0  0  0  0  0  0  0  0  0  0  0  0
   16.0678    2.0850   17.7017 N   0  0  0  0  0  0  0  0  0  0  0  0
   15.3045    1.6966   16.6405 C   0  0  0  0  0  0  0  0  0  0  0  0
   15.5078    0.3499   16.6205 C   0  0  0  0  0  0  0  0  0  0  0  0
   14.8847   -0.6923   15.7096 C   0  0  0  0  0  0  0  0  0  0  0  0
   15.1351   -2.0137   15.9597 C   0  0  0  0  0  0  0  0  0  0  0  0
   13.8688   -2.5899   15.8276 C   0  0  0  0  0  0  0  0  0  0  0  0
   13.2957   -3.7021   16.4382 C   0  0  0  0  0  0  0  0  0  0  0  0
   11.9693   -3.9589   16.1581 C   0  0  0  0  0  0  0  0  0  0  0  0
   11.2493   -3.1738   15.2588 C   0  0  0  0  0  0  0  0  0  0  0  0
   11.7999   -2.0485   14.6586 C   0  0  0  0  0  0  0  0  0  0  0  0
   13.1068   -1.7529   15.0103 C   0  0  0  0  0  0  0  0  0  0  0  0
   13.8569   -0.6057   14.8103 N   0  0  0  0  0  0  0  0  0  0  0  0
   16.2649   -0.0308   17.6990 N   0  0  0  0  0  0  0  0  0  0  0  0
   16.5327    1.0461   18.4071 N   0  0  0  0  0  0  0  0  0  0  0  0
   17.3801    3.7119   19.0938 C   0  0  0  0  0  0  0  0  0  0  0  0
   19.6057    6.8150   18.3410 H   0  0  0  0  0  0  0  0  0  0  0  0
   20.2794    7.2590   19.9172 H   0  0  0  0  0  0  0  0  0  0  0  0
   21.1713    6.1350   18.8506 H   0  0  0  0  0  0  0  0  0  0  0  0
   19.8328    4.1854   17.4749 H   0  0  0  0  0  0  0  0  0  0  0  0
   19.4092    2.8675   18.5104 H   0  0  0  0  0  0  0  0  0  0  0  0
   18.2147    2.4188   16.4137 H   0  0  0  0  0  0  0  0  0  0  0  0
   17.8828    4.1456   16.1527 H   0  0  0  0  0  0  0  0  0  0  0  0
   16.0246    4.1243   17.4608 H   0  0  0  0  0  0  0  0  0  0  0  0
   14.7885    2.3829   15.9865 H   0  0  0  0  0  0  0  0  0  0  0  0
   15.9285   -2.3992   16.5896 H   0  0  0  0  0  0  0  0  0  0  0  0
   13.8577   -4.3123   17.1298 H   0  0  0  0  0  0  0  0  0  0  0  0
   11.5081   -4.8243   16.6126 H   0  0  0  0  0  0  0  0  0  0  0  0
   10.2266   -3.4356   15.0184 H   0  0  0  0  0  0  0  0  0  0  0  0
   11.2187   -1.3997   14.0155 H   0  0  0  0  0  0  0  0  0  0  0  0
   13.4640    0.2503   14.4439 H   0  0  0  0  0  0  0  0  0  0  0  0
   17.7511    2.8832   19.7213 H   0  0  0  0  0  0  0  0  0  0  0  0
   16.6188    4.1771   19.7363 H   0  0  0  0  0  0  0  0  0  0  0  0
  1  2  1  0
  2  3  2  0
  2  4  1  0
  4  5  1  0
  5  6  1  0
  6  7  1  0
  7  8  1  0
  8  9  1  0
  9 10  2  0
 10 11  1  0
 11 12  2  0
 12 13  1  0
 13 14  2  0
 14 15  1  0
 15 16  2  0
 16 17  1  0
 17 18  2  0
 18 19  1  0
 10 20  1  0
 20 21  2  0
  7 22  1  0
 22  4  1  0
 21  8  1  0
 19 11  1  0
 18 13  1  0
  1 23  1  0
  1 24  1  0
  1 25  1  0
  5 26  1  0
  5 27  1  0
  6 28  1  0
  6 29  1  0
  7 30  1  0
  9 31  1  0
 12 32  1  0
 14 33  1  0
 15 34  1  0
 16 35  1  0
 17 36  1  0
 19 37  1  0
 22 38  1  0
 22 39  1  0
M  END
>  <Energy>  (81) 
93.417456192188808

>  <compound_id>  (81) 
53457

>  <target_id>  (81) 
1

>  <reference_id>  (81) 
124

>  <inspiration_ids>  (81) 
[124, 97]

>  <energy_score>  (81) 
75.88547502388461

>  <distance_score>  (81) 
5.442106385044495

>  <path>  (81) 
/opt/xchem-fragalysis-2/maxwin/BulkDock/SCRATCH/511024/C53457-P124/C53457-P124.minimised.mol

>  <scratch_subdir>  (81) 
/opt/xchem-fragalysis-2/maxwin/BulkDock/SCRATCH/511024/C53457-P124

>  <fragmenstein_runtime>  (81) 
7.457470417022705

>  <fragmenstein_outcome>  (81) 
too moved

>  <fragmenstein_mode>  (81) 
expansion

>  <fragmenstein_error>  (81) 


$$$$
C53457-P97
     RDKit          3D

 39 42  0  0  0  0  0  0  0  0999 V2000
   21.4181    6.2754   19.2233 C   0  0  0  0  0  0  0  0  0  0  0  0
   20.3923    5.1705   19.3682 C   0  0  0  0  0  0  0  0  0  0  0  0
   20.6237    4.2180   20.0646 O   0  0  0  0  0  0  0  0  0  0  0  0
   19.2367    5.4977   18.6008 N   0  0  0  0  0  0  0  0  0  0  0  0
   19.3670    4.9511   17.1939 C   0  0  0  0  0  0  0  0  0  0  0  0
   19.1441    3.4509   17.1334 C   0  0  0  0  0  0  0  0  0  0  0  0
   18.0226    3.3505   18.1172 C   0  0  0  0  0  0  0  0  0  0  0  0
   16.8336    2.7644   17.5648 N   0  0  0  0  0  0  0  0  0  0  0  0
   16.4269    1.4758   17.7012 C   0  0  0  0  0  0  0  0  0  0  0  0
   15.3761    1.3821   16.8254 C   0  0  0  0  0  0  0  0  0  0  0  0
   14.5709    0.1137   16.5477 C   0  0  0  0  0  0  0  0  0  0  0  0
   14.7511   -1.1119   17.1386 C   0  0  0  0  0  0  0  0  0  0  0  0
   13.7338   -1.9651   16.6521 C   0  0  0  0  0  0  0  0  0  0  0  0
   13.3729   -3.2878   16.9452 C   0  0  0  0  0  0  0  0  0  0  0  0
   12.2545   -3.8217   16.3134 C   0  0  0  0  0  0  0  0  0  0  0  0
   11.5333   -3.0807   15.3779 C   0  0  0  0  0  0  0  0  0  0  0  0
   11.8809   -1.7689   15.0638 C   0  0  0  0  0  0  0  0  0  0  0  0
   12.9805   -1.2333   15.7317 C   0  0  0  0  0  0  0  0  0  0  0  0
   13.5358    0.0224   15.6619 N   0  0  0  0  0  0  0  0  0  0  0  0
   15.1505    2.5879   16.2319 N   0  0  0  0  0  0  0  0  0  0  0  0
   16.0571    3.4375   16.6963 N   0  0  0  0  0  0  0  0  0  0  0  0
   17.8991    4.8187   18.5015 C   0  0  0  0  0  0  0  0  0  0  0  0
   22.3008    5.8778   18.7149 H   0  0  0  0  0  0  0  0  0  0  0  0
   21.0315    7.1216   18.6477 H   0  0  0  0  0  0  0  0  0  0  0  0
   21.6953    6.6356   20.2180 H   0  0  0  0  0  0  0  0  0  0  0  0
   18.7301    5.5178   16.4936 H   0  0  0  0  0  0  0  0  0  0  0  0
   20.3916    5.1577   16.8540 H   0  0  0  0  0  0  0  0  0  0  0  0
   20.0259    2.9069   17.4904 H   0  0  0  0  0  0  0  0  0  0  0  0
   18.9193    3.1128   16.1171 H   0  0  0  0  0  0  0  0  0  0  0  0
   18.3249    2.7492   18.9835 H   0  0  0  0  0  0  0  0  0  0  0  0
   16.9201    0.7620   18.3437 H   0  0  0  0  0  0  0  0  0  0  0  0
   15.4985   -1.3673   17.8776 H   0  0  0  0  0  0  0  0  0  0  0  0
   13.9281   -3.8731   17.6708 H   0  0  0  0  0  0  0  0  0  0  0  0
   11.9432   -4.8337   16.5566 H   0  0  0  0  0  0  0  0  0  0  0  0
   10.6803   -3.5328   14.8811 H   0  0  0  0  0  0  0  0  0  0  0  0
   11.3115   -1.1972   14.3381 H   0  0  0  0  0  0  0  0  0  0  0  0
   13.2071    0.7785   15.0768 H   0  0  0  0  0  0  0  0  0  0  0  0
   17.2052    5.4250   17.8969 H   0  0  0  0  0  0  0  0  0  0  0  0
   17.4832    4.8623   19.5179 H   0  0  0  0  0  0  0  0  0  0  0  0
  1  2  1  0
  2  3  2  0
  2  4  1  0
  4  5  1  0
  5  6  1  0
  6  7  1  0
  7  8  1  0
  8  9  1  0
  9 10  2  0
 10 11  1  0
 11 12  2  0
 12 13  1  0
 13 14  2  0
 14 15  1  0
 15 16  2  0
 16 17  1  0
 17 18  2  0
 18 19  1  0
 10 20  1  0
 20 21  2  0
  7 22  1  0
 22  4  1  0
 21  8  1  0
 19 11  1  0
 18 13  1  0
  1 23  1  0
  1 24  1  0
  1 25  1  0
  5 26  1  0
  5 27  1  0
  6 28  1  0
  6 29  1  0
  7 30  1  0
  9 31  1  0
 12 32  1  0
 14 33  1  0
 15 34  1  0
 16 35  1  0
 17 36  1  0
 19 37  1  0
 22 38  1  0
 22 39  1  0
M  END
>  <Energy>  (82) 
52.334241868277061

>  <compound_id>  (82) 
53457

>  <target_id>  (82) 
1

>  <reference_id>  (82) 
97

>  <inspiration_ids>  (82) 
[124, 97]

>  <energy_score>  (82) 
25.386161048883707

>  <distance_score>  (82) 
5.80877719472406

>  <path>  (82) 
/opt/xchem-fragalysis-2/maxwin/BulkDock/SCRATCH/511024/C53457-P97/C53457-P97.minimised.mol

>  <scratch_subdir>  (82) 
/opt/xchem-fragalysis-2/maxwin/BulkDock/SCRATCH/511024/C53457-P97

>  <fragmenstein_runtime>  (82) 
8.392154693603516

>  <fragmenstein_outcome>  (82) 
too moved

>  <fragmenstein_mode>  (82) 
expansion

>  <fragmenstein_error>  (82) 


$$$$
C53440-P124
     RDKit          3D

 40 43  0  0  0  0  0  0  0  0999 V2000
   17.9172    0.2680   19.9566 O   0  0  0  0  0  0  0  0  0  0  0  0
   19.0465    0.6226   19.7343 C   0  0  0  0  0  0  0  0  0  0  0  0
   20.1709   -0.4238   19.6372 C   0  0  0  0  0  0  0  0  0  0  0  0
   19.6660   -1.6752   19.1925 O   0  0  0  0  0  0  0  0  0  0  0  0
   19.5905    1.9291   19.5602 N   0  0  0  0  0  0  0  0  0  0  0  0
   18.9601    3.2773   19.7067 C   0  0  0  0  0  0  0  0  0  0  0  0
   17.7087    3.4349   18.8776 C   0  0  0  0  0  0  0  0  0  0  0  0
   18.2923    3.0206   17.5753 C   0  0  0  0  0  0  0  0  0  0  0  0
   17.3937    2.2806   16.7374 N   0  0  0  0  0  0  0  0  0  0  0  0
   17.0346    0.9751   16.7859 C   0  0  0  0  0  0  0  0  0  0  0  0
   16.0541    0.8738   15.8315 C   0  0  0  0  0  0  0  0  0  0  0  0
   15.1881   -0.3661   15.5978 C   0  0  0  0  0  0  0  0  0  0  0  0
   15.2698   -1.5510   16.2886 C   0  0  0  0  0  0  0  0  0  0  0  0
   14.0809   -2.2662   16.0125 C   0  0  0  0  0  0  0  0  0  0  0  0
   13.4965   -3.4069   16.5818 C   0  0  0  0  0  0  0  0  0  0  0  0
   12.2177   -3.7732   16.1687 C   0  0  0  0  0  0  0  0  0  0  0  0
   11.5473   -3.0571   15.1785 C   0  0  0  0  0  0  0  0  0  0  0  0
   12.1257   -1.9442   14.5715 C   0  0  0  0  0  0  0  0  0  0  0  0
   13.3842   -1.5562   15.0314 C   0  0  0  0  0  0  0  0  0  0  0  0
   14.1310   -0.4374   14.7337 N   0  0  0  0  0  0  0  0  0  0  0  0
   15.8894    2.0700   15.2036 N   0  0  0  0  0  0  0  0  0  0  0  0
   16.7154    2.9365   15.7757 N   0  0  0  0  0  0  0  0  0  0  0  0
   19.5601    2.3254   18.0768 C   0  0  0  0  0  0  0  0  0  0  0  0
   20.6110   -0.5542   20.6305 H   0  0  0  0  0  0  0  0  0  0  0  0
   20.9508   -0.1038   18.9412 H   0  0  0  0  0  0  0  0  0  0  0  0
   18.8309   -1.8110   19.6821 H   0  0  0  0  0  0  0  0  0  0  0  0
   19.7023    4.0811   19.5688 H   0  0  0  0  0  0  0  0  0  0  0  0
   18.6684    3.3384   20.7636 H   0  0  0  0  0  0  0  0  0  0  0  0
   17.3338    4.4625   18.8774 H   0  0  0  0  0  0  0  0  0  0  0  0
   16.9094    2.7720   19.2273 H   0  0  0  0  0  0  0  0  0  0  0  0
   18.6059    3.8982   16.9927 H   0  0  0  0  0  0  0  0  0  0  0  0
   17.4270    0.2637   17.4935 H   0  0  0  0  0  0  0  0  0  0  0  0
   16.0079   -1.8073   17.0370 H   0  0  0  0  0  0  0  0  0  0  0  0
   14.0057   -3.9623   17.3609 H   0  0  0  0  0  0  0  0  0  0  0  0
   11.7498   -4.6480   16.6092 H   0  0  0  0  0  0  0  0  0  0  0  0
   10.5596   -3.3758   14.8613 H   0  0  0  0  0  0  0  0  0  0  0  0
   11.5930   -1.3760   13.8158 H   0  0  0  0  0  0  0  0  0  0  0  0
   13.8310    0.3138   14.1263 H   0  0  0  0  0  0  0  0  0  0  0  0
   20.4480    2.9554   17.8955 H   0  0  0  0  0  0  0  0  0  0  0  0
   19.7548    1.4187   17.4875 H   0  0  0  0  0  0  0  0  0  0  0  0
  1  2  2  0
  2  3  1  0
  3  4  1  0
  2  5  1  0
  5  6  1  0
  6  7  1  0
  7  8  1  0
  8  9  1  0
  9 10  1  0
 10 11  2  0
 11 12  1  0
 12 13  2  0
 13 14  1  0
 14 15  2  0
 15 16  1  0
 16 17  2  0
 17 18  1  0
 18 19  2  0
 19 20  1  0
 11 21  1  0
 21 22  2  0
  8 23  1  0
 23  5  1  0
 22  9  1  0
 20 12  1  0
 19 14  1  0
  3 24  1  0
  3 25  1  0
  4 26  1  0
  6 27  1  0
  6 28  1  0
  7 29  1  0
  7 30  1  0
  8 31  1  0
 10 32  1  0
 13 33  1  0
 15 34  1  0
 16 35  1  0
 17 36  1  0
 18 37  1  0
 20 38  1  0
 23 39  1  0
 23 40  1  0
M  END
>  <Energy>  (83) 
92.161036448774368

>  <compound_id>  (83) 
53440

>  <target_id>  (83) 
1

>  <reference_id>  (83) 
124

>  <inspiration_ids>  (83) 
[124, 97]

>  <energy_score>  (83) 
33.61693517963906

>  <distance_score>  (83) 
4.867805142317367

>  <path>  (83) 
/opt/xchem-fragalysis-2/maxwin/BulkDock/SCRATCH/511024/C53440-P124/C53440-P124.minimised.mol

>  <scratch_subdir>  (83) 
/opt/xchem-fragalysis-2/maxwin/BulkDock/SCRATCH/511024/C53440-P124

>  <fragmenstein_runtime>  (83) 
7.362185478210449

>  <fragmenstein_outcome>  (83) 
too moved

>  <fragmenstein_mode>  (83) 
expansion

>  <fragmenstein_error>  (83) 


$$$$
C53440-P97
     RDKit          3D

 40 43  0  0  0  0  0  0  0  0999 V2000
   18.7730    7.8671   18.7474 O   0  0  0  0  0  0  0  0  0  0  0  0
   18.9864    6.8089   19.2819 C   0  0  0  0  0  0  0  0  0  0  0  0
   19.1758    6.7522   20.8086 C   0  0  0  0  0  0  0  0  0  0  0  0
   18.4773    7.8042   21.4596 O   0  0  0  0  0  0  0  0  0  0  0  0
   19.1574    5.5073   18.7257 N   0  0  0  0  0  0  0  0  0  0  0  0
   19.2368    5.0550   17.3000 C   0  0  0  0  0  0  0  0  0  0  0  0
   19.1076    3.5533   17.1874 C   0  0  0  0  0  0  0  0  0  0  0  0
   17.9975    3.3540   18.1698 C   0  0  0  0  0  0  0  0  0  0  0  0
   16.8240    2.7575   17.5971 N   0  0  0  0  0  0  0  0  0  0  0  0
   16.4273    1.4649   17.7194 C   0  0  0  0  0  0  0  0  0  0  0  0
   15.3776    1.3732   16.8418 C   0  0  0  0  0  0  0  0  0  0  0  0
   14.5761    0.1045   16.5559 C   0  0  0  0  0  0  0  0  0  0  0  0
   14.7563   -1.1231   17.1429 C   0  0  0  0  0  0  0  0  0  0  0  0
   13.7374   -1.9738   16.6555 C   0  0  0  0  0  0  0  0  0  0  0  0
   13.3735   -3.2958   16.9477 C   0  0  0  0  0  0  0  0  0  0  0  0
   12.2542   -3.8266   16.3150 C   0  0  0  0  0  0  0  0  0  0  0  0
   11.5354   -3.0837   15.3792 C   0  0  0  0  0  0  0  0  0  0  0  0
   11.8860   -1.7726   15.0661 C   0  0  0  0  0  0  0  0  0  0  0  0
   12.9859   -1.2397   15.7355 C   0  0  0  0  0  0  0  0  0  0  0  0
   13.5427    0.0155   15.6677 N   0  0  0  0  0  0  0  0  0  0  0  0
   15.1462    2.5829   16.2592 N   0  0  0  0  0  0  0  0  0  0  0  0
   16.0446    3.4341   16.7359 N   0  0  0  0  0  0  0  0  0  0  0  0
   17.8232    4.7903   18.6432 C   0  0  0  0  0  0  0  0  0  0  0  0
   20.2433    6.8548   21.0263 H   0  0  0  0  0  0  0  0  0  0  0  0
   18.8211    5.8033   21.2185 H   0  0  0  0  0  0  0  0  0  0  0  0
   18.5569    8.5763   20.8641 H   0  0  0  0  0  0  0  0  0  0  0  0
   20.2384    5.3522   16.9616 H   0  0  0  0  0  0  0  0  0  0  0  0
   18.5596    5.6280   16.6438 H   0  0  0  0  0  0  0  0  0  0  0  0
   20.0231    3.0588   17.5317 H   0  0  0  0  0  0  0  0  0  0  0  0
   18.9025    3.2313   16.1621 H   0  0  0  0  0  0  0  0  0  0  0  0
   18.3333    2.7166   18.9973 H   0  0  0  0  0  0  0  0  0  0  0  0
   16.9215    0.7468   18.3562 H   0  0  0  0  0  0  0  0  0  0  0  0
   15.5022   -1.3808   17.8823 H   0  0  0  0  0  0  0  0  0  0  0  0
   13.9266   -3.8830   17.6732 H   0  0  0  0  0  0  0  0  0  0  0  0
   11.9402   -4.8381   16.5568 H   0  0  0  0  0  0  0  0  0  0  0  0
   10.6825   -3.5338   14.8803 H   0  0  0  0  0  0  0  0  0  0  0  0
   11.3189   -1.1999   14.3391 H   0  0  0  0  0  0  0  0  0  0  0  0
   13.2145    0.7725   15.0834 H   0  0  0  0  0  0  0  0  0  0  0  0
   17.4149    4.7660   19.6639 H   0  0  0  0  0  0  0  0  0  0  0  0
   17.0825    5.3954   18.0912 H   0  0  0  0  0  0  0  0  0  0  0  0
  1  2  2  0
  2  3  1  0
  3  4  1  0
  2  5  1  0
  5  6  1  0
  6  7  1  0
  7  8  1  0
  8  9  1  0
  9 10  1  0
 10 11  2  0
 11 12  1  0
 12 13  2  0
 13 14  1  0
 14 15  2  0
 15 16  1  0
 16 17  2  0
 17 18  1  0
 18 19  2  0
 19 20  1  0
 11 21  1  0
 21 22  2  0
  8 23  1  0
 23  5  1  0
 22  9  1  0
 20 12  1  0
 19 14  1  0
  3 24  1  0
  3 25  1  0
  4 26  1  0
  6 27  1  0
  6 28  1  0
  7 29  1  0
  7 30  1  0
  8 31  1  0
 10 32  1  0
 13 33  1  0
 15 34  1  0
 16 35  1  0
 17 36  1  0
 18 37  1  0
 20 38  1  0
 23 39  1  0
 23 40  1  0
M  END
>  <Energy>  (84) 
84.592995020515545

>  <compound_id>  (84) 
53440

>  <target_id>  (84) 
1

>  <reference_id>  (84) 
97

>  <inspiration_ids>  (84) 
[124, 97]

>  <energy_score>  (84) 
26.048893751379495

>  <distance_score>  (84) 
6.104705533921031

>  <path>  (84) 
/opt/xchem-fragalysis-2/maxwin/BulkDock/SCRATCH/511024/C53440-P97/C53440-P97.minimised.mol

>  <scratch_subdir>  (84) 
/opt/xchem-fragalysis-2/maxwin/BulkDock/SCRATCH/511024/C53440-P97

>  <fragmenstein_runtime>  (84) 
7.489085674285889

>  <fragmenstein_outcome>  (84) 
too moved

>  <fragmenstein_mode>  (84) 
expansion

>  <fragmenstein_error>  (84) 


$$$$
C24748-P124
     RDKit          3D

 41 44  0  0  0  0  0  0  0  0999 V2000
   15.8986   -0.2340   14.8776 O   0  0  0  0  0  0  0  0  0  0  0  0
   15.2985   -0.7006   15.7618 C   0  0  0  0  0  0  0  0  0  0  0  0
   15.6510   -0.8156   17.2580 N   0  0  0  0  0  0  0  0  0  0  0  0
   16.8532   -0.4677   17.9626 C   0  0  0  0  0  0  0  0  0  0  0  0
   17.7985   -1.4469   17.3484 C   0  0  0  0  0  0  0  0  0  0  0  0
   18.4647   -1.2626   16.1586 C   0  0  0  0  0  0  0  0  0  0  0  0
   18.5057   -2.5177   15.6212 N   0  0  0  0  0  0  0  0  0  0  0  0
   18.7059   -2.7836   14.2250 C   0  0  0  0  0  0  0  0  0  0  0  0
   17.5375   -2.3671   13.3428 C   0  0  0  0  0  0  0  0  0  0  0  0
   17.9167   -2.9754   12.0109 C   0  0  0  0  0  0  0  0  0  0  0  0
   18.7368   -4.1781   12.3000 N   0  0  0  0  0  0  0  0  0  0  0  0
   18.9263   -4.2160   13.7716 C   0  0  0  0  0  0  0  0  0  0  0  0
   18.2007   -3.4484   16.5411 N   0  0  0  0  0  0  0  0  0  0  0  0
   17.7487   -2.7988   17.6142 N   0  0  0  0  0  0  0  0  0  0  0  0
   14.0291   -1.3939   15.4337 C   0  0  0  0  0  0  0  0  0  0  0  0
   13.2291   -0.8766   14.4108 C   0  0  0  0  0  0  0  0  0  0  0  0
   11.9962   -1.4482   14.1302 C   0  0  0  0  0  0  0  0  0  0  0  0
   11.5273   -2.5571   14.8301 C   0  0  0  0  0  0  0  0  0  0  0  0
   12.3534   -3.0857   15.8165 C   0  0  0  0  0  0  0  0  0  0  0  0
   12.1327   -4.1309   16.6713 N   0  0  0  0  0  0  0  0  0  0  0  0
   13.1160   -4.1536   17.6152 C   0  0  0  0  0  0  0  0  0  0  0  0
   14.1555   -3.4066   17.1383 C   0  0  0  0  0  0  0  0  0  0  0  0
   13.6158   -2.5693   16.1156 C   0  0  0  0  0  0  0  0  0  0  0  0
   14.9412   -1.3506   17.7304 H   0  0  0  0  0  0  0  0  0  0  0  0
   17.1251    0.5661   17.7374 H   0  0  0  0  0  0  0  0  0  0  0  0
   16.7155   -0.6290   19.0332 H   0  0  0  0  0  0  0  0  0  0  0  0
   18.6255   -0.3798   15.5562 H   0  0  0  0  0  0  0  0  0  0  0  0
   19.5923   -2.1967   13.9394 H   0  0  0  0  0  0  0  0  0  0  0  0
   16.5921   -2.7820   13.7121 H   0  0  0  0  0  0  0  0  0  0  0  0
   17.4415   -1.2814   13.2614 H   0  0  0  0  0  0  0  0  0  0  0  0
   17.0440   -3.2153   11.3976 H   0  0  0  0  0  0  0  0  0  0  0  0
   18.5289   -2.2673   11.4391 H   0  0  0  0  0  0  0  0  0  0  0  0
   19.6434   -4.0735   11.8425 H   0  0  0  0  0  0  0  0  0  0  0  0
   18.1925   -4.9026   14.2088 H   0  0  0  0  0  0  0  0  0  0  0  0
   19.9243   -4.5845   14.0298 H   0  0  0  0  0  0  0  0  0  0  0  0
   13.5428    0.0125   13.8678 H   0  0  0  0  0  0  0  0  0  0  0  0
   11.3654   -0.9752   13.3857 H   0  0  0  0  0  0  0  0  0  0  0  0
   10.5473   -2.9685   14.6206 H   0  0  0  0  0  0  0  0  0  0  0  0
   11.2874   -4.6866   16.6920 H   0  0  0  0  0  0  0  0  0  0  0  0
   13.0086   -4.7332   18.5197 H   0  0  0  0  0  0  0  0  0  0  0  0
   15.1334   -3.3594   17.6000 H   0  0  0  0  0  0  0  0  0  0  0  0
  1  2  2  0
  2  3  1  0
  3  4  1  0
  4  5  1  0
  5  6  2  0
  6  7  1  0
  7  8  1  0
  8  9  1  0
  9 10  1  0
 10 11  1  0
 11 12  1  0
  7 13  1  0
 13 14  2  0
  2 15  1  0
 15 16  2  0
 16 17  1  0
 17 18  2  0
 18 19  1  0
 19 20  1  0
 20 21  1  0
 21 22  2  0
 22 23  1  0
 14  5  1  0
 23 15  1  0
 12  8  1  0
 23 19  2  0
  3 24  1  0
  4 25  1  0
  4 26  1  0
  6 27  1  0
  8 28  1  0
  9 29  1  0
  9 30  1  0
 10 31  1  0
 10 32  1  0
 11 33  1  0
 12 34  1  0
 12 35  1  0
 16 36  1  0
 17 37  1  0
 18 38  1  0
 20 39  1  0
 21 40  1  0
 22 41  1  0
M  END
>  <Energy>  (85) 
63.522512657839449

>  <compound_id>  (85) 
24748

>  <target_id>  (85) 
1

>  <reference_id>  (85) 
124

>  <inspiration_ids>  (85) 
[124, 97]

>  <energy_score>  (85) 
-0.9870690823792643

>  <distance_score>  (85) 
2.0650989468358634

>  <path>  (85) 
/opt/xchem-fragalysis-2/maxwin/BulkDock/SCRATCH/511024/C24748-P124/C24748-P124.minimised.mol

>  <scratch_subdir>  (85) 
/opt/xchem-fragalysis-2/maxwin/BulkDock/SCRATCH/511024/C24748-P124

>  <fragmenstein_runtime>  (85) 
5.167665004730225

>  <fragmenstein_outcome>  (85) 
too moved

>  <fragmenstein_mode>  (85) 
expansion

>  <fragmenstein_error>  (85) 


$$$$
C24748-P97
     RDKit          3D

 41 44  0  0  0  0  0  0  0  0999 V2000
   15.4138    0.3474   15.6032 O   0  0  0  0  0  0  0  0  0  0  0  0
   14.9284   -0.3372   16.4126 C   0  0  0  0  0  0  0  0  0  0  0  0
   15.4441   -0.7631   17.7991 N   0  0  0  0  0  0  0  0  0  0  0  0
   16.7047   -0.5155   18.4427 C   0  0  0  0  0  0  0  0  0  0  0  0
   17.6010   -1.3677   17.6029 C   0  0  0  0  0  0  0  0  0  0  0  0
   18.0984   -1.0267   16.3661 C   0  0  0  0  0  0  0  0  0  0  0  0
   18.2132   -2.2237   15.7221 N   0  0  0  0  0  0  0  0  0  0  0  0
   18.2870   -2.3517   14.2958 C   0  0  0  0  0  0  0  0  0  0  0  0
   16.9571   -2.1385   13.5877 C   0  0  0  0  0  0  0  0  0  0  0  0
   17.2942   -2.5562   12.1704 C   0  0  0  0  0  0  0  0  0  0  0  0
   18.3949   -3.5466   12.2595 N   0  0  0  0  0  0  0  0  0  0  0  0
   18.7408   -3.6678   13.6950 C   0  0  0  0  0  0  0  0  0  0  0  0
   18.0818   -3.2503   16.5781 N   0  0  0  0  0  0  0  0  0  0  0  0
   17.6918   -2.7353   17.7454 N   0  0  0  0  0  0  0  0  0  0  0  0
   13.6507   -1.0150   16.0718 C   0  0  0  0  0  0  0  0  0  0  0  0
   12.7527   -0.3894   15.1975 C   0  0  0  0  0  0  0  0  0  0  0  0
   11.6105   -1.0515   14.7654 C   0  0  0  0  0  0  0  0  0  0  0  0
   11.3306   -2.3544   15.1784 C   0  0  0  0  0  0  0  0  0  0  0  0
   12.2346   -2.9715   16.0425 C   0  0  0  0  0  0  0  0  0  0  0  0
   12.1781   -4.2048   16.6445 N   0  0  0  0  0  0  0  0  0  0  0  0
   13.2449   -4.3585   17.4762 C   0  0  0  0  0  0  0  0  0  0  0  0
   14.1138   -3.3346   17.2356 C   0  0  0  0  0  0  0  0  0  0  0  0
   13.4119   -2.3562   16.4708 C   0  0  0  0  0  0  0  0  0  0  0  0
   14.7307   -1.2981   18.2745 H   0  0  0  0  0  0  0  0  0  0  0  0
   16.9558    0.5449   18.3661 H   0  0  0  0  0  0  0  0  0  0  0  0
   16.6614   -0.8495   19.4809 H   0  0  0  0  0  0  0  0  0  0  0  0
   18.1192   -0.0845   15.8368 H   0  0  0  0  0  0  0  0  0  0  0  0
   18.9904   -1.5707   13.9671 H   0  0  0  0  0  0  0  0  0  0  0  0
   16.1758   -2.7801   14.0132 H   0  0  0  0  0  0  0  0  0  0  0  0
   16.6139   -1.1011   13.6346 H   0  0  0  0  0  0  0  0  0  0  0  0
   16.4275   -2.9621   11.6418 H   0  0  0  0  0  0  0  0  0  0  0  0
   17.6486   -1.6896   11.5994 H   0  0  0  0  0  0  0  0  0  0  0  0
   19.1989   -3.1937   11.7402 H   0  0  0  0  0  0  0  0  0  0  0  0
   18.2057   -4.5230   14.1233 H   0  0  0  0  0  0  0  0  0  0  0  0
   19.8134   -3.8405   13.8294 H   0  0  0  0  0  0  0  0  0  0  0  0
   12.9602    0.6157   14.8366 H   0  0  0  0  0  0  0  0  0  0  0  0
   10.9287   -0.5445   14.0860 H   0  0  0  0  0  0  0  0  0  0  0  0
   10.4379   -2.8602   14.8270 H   0  0  0  0  0  0  0  0  0  0  0  0
   11.3996   -4.8468   16.5644 H   0  0  0  0  0  0  0  0  0  0  0  0
   13.3137   -5.1686   18.1772 H   0  0  0  0  0  0  0  0  0  0  0  0
   15.0952   -3.2656   17.6850 H   0  0  0  0  0  0  0  0  0  0  0  0
  1  2  2  0
  2  3  1  0
  3  4  1  0
  4  5  1  0
  5  6  2  0
  6  7  1  0
  7  8  1  0
  8  9  1  0
  9 10  1  0
 10 11  1  0
 11 12  1  0
  7 13  1  0
 13 14  2  0
  2 15  1  0
 15 16  2  0
 16 17  1  0
 17 18  2  0
 18 19  1  0
 19 20  1  0
 20 21  1  0
 21 22  2  0
 22 23  1  0
 14  5  1  0
 23 15  1  0
 12  8  1  0
 23 19  2  0
  3 24  1  0
  4 25  1  0
  4 26  1  0
  6 27  1  0
  8 28  1  0
  9 29  1  0
  9 30  1  0
 10 31  1  0
 10 32  1  0
 11 33  1  0
 12 34  1  0
 12 35  1  0
 16 36  1  0
 17 37  1  0
 18 38  1  0
 20 39  1  0
 21 40  1  0
 22 41  1  0
M  END
>  <Energy>  (86) 
59.151975089112021

>  <compound_id>  (86) 
24748

>  <target_id>  (86) 
1

>  <reference_id>  (86) 
97

>  <inspiration_ids>  (86) 
[124, 97]

>  <energy_score>  (86) 
-5.357606651108171

>  <distance_score>  (86) 
2.0347240929630366

>  <path>  (86) 
/opt/xchem-fragalysis-2/maxwin/BulkDock/SCRATCH/511024/C24748-P97/C24748-P97.minimised.mol

>  <scratch_subdir>  (86) 
/opt/xchem-fragalysis-2/maxwin/BulkDock/SCRATCH/511024/C24748-P97

>  <fragmenstein_runtime>  (86) 
5.013433933258057

>  <fragmenstein_outcome>  (86) 
too moved

>  <fragmenstein_mode>  (86) 
expansion

>  <fragmenstein_error>  (86) 


$$$$
C53458-P124
     RDKit          3D

 45 48  0  0  0  0  0  0  0  0999 V2000
   21.6468    8.4972   19.3990 C   0  0  0  0  0  0  0  0  0  0  0  0
   21.0804    7.2573   20.0714 C   0  0  0  0  0  0  0  0  0  0  0  0
   20.0310    6.5753   19.1963 C   0  0  0  0  0  0  0  0  0  0  0  0
   19.4482    5.3301   19.8637 C   0  0  0  0  0  0  0  0  0  0  0  0
   19.7799    4.9365   20.9207 O   0  0  0  0  0  0  0  0  0  0  0  0
   18.3749    4.8192   18.9169 N   0  0  0  0  0  0  0  0  0  0  0  0
   18.9327    3.7888   17.9603 C   0  0  0  0  0  0  0  0  0  0  0  0
   17.9163    3.4020   16.9025 C   0  0  0  0  0  0  0  0  0  0  0  0
   16.7028    3.3608   17.7733 C   0  0  0  0  0  0  0  0  0  0  0  0
   16.0608    2.0891   17.6942 N   0  0  0  0  0  0  0  0  0  0  0  0
   15.2994    1.6959   16.6339 C   0  0  0  0  0  0  0  0  0  0  0  0
   15.5112    0.3507   16.6129 C   0  0  0  0  0  0  0  0  0  0  0  0
   14.8866   -0.6934   15.7055 C   0  0  0  0  0  0  0  0  0  0  0  0
   15.1371   -2.0145   15.9576 C   0  0  0  0  0  0  0  0  0  0  0  0
   13.8705   -2.5908   15.8276 C   0  0  0  0  0  0  0  0  0  0  0  0
   13.2980   -3.7026   16.4397 C   0  0  0  0  0  0  0  0  0  0  0  0
   11.9715   -3.9603   16.1604 C   0  0  0  0  0  0  0  0  0  0  0  0
   11.2506   -3.1762   15.2609 C   0  0  0  0  0  0  0  0  0  0  0  0
   11.8002   -2.0510   14.6598 C   0  0  0  0  0  0  0  0  0  0  0  0
   13.1073   -1.7548   15.0104 C   0  0  0  0  0  0  0  0  0  0  0  0
   13.8568   -0.6079   14.8085 N   0  0  0  0  0  0  0  0  0  0  0  0
   16.2764   -0.0251   17.6873 N   0  0  0  0  0  0  0  0  0  0  0  0
   16.5405    1.0536   18.3944 N   0  0  0  0  0  0  0  0  0  0  0  0
   17.3540    3.7278   19.0914 C   0  0  0  0  0  0  0  0  0  0  0  0
   22.3951    8.9693   20.0432 H   0  0  0  0  0  0  0  0  0  0  0  0
   22.1280    8.2431   18.4491 H   0  0  0  0  0  0  0  0  0  0  0  0
   20.8586    9.2302   19.2000 H   0  0  0  0  0  0  0  0  0  0  0  0
   21.8970    6.5586   20.2890 H   0  0  0  0  0  0  0  0  0  0  0  0
   20.6385    7.5382   21.0349 H   0  0  0  0  0  0  0  0  0  0  0  0
   19.2096    7.2723   18.9922 H   0  0  0  0  0  0  0  0  0  0  0  0
   20.4844    6.2878   18.2418 H   0  0  0  0  0  0  0  0  0  0  0  0
   19.7827    4.2646   17.4529 H   0  0  0  0  0  0  0  0  0  0  0  0
   19.3970    2.9354   18.4860 H   0  0  0  0  0  0  0  0  0  0  0  0
   17.8242    4.1912   16.1475 H   0  0  0  0  0  0  0  0  0  0  0  0
   18.1945    2.4709   16.3988 H   0  0  0  0  0  0  0  0  0  0  0  0
   15.9796    4.1289   17.4724 H   0  0  0  0  0  0  0  0  0  0  0  0
   14.7744    2.3787   15.9833 H   0  0  0  0  0  0  0  0  0  0  0  0
   15.9315   -2.3990   16.5869 H   0  0  0  0  0  0  0  0  0  0  0  0
   13.8607   -4.3120   17.1313 H   0  0  0  0  0  0  0  0  0  0  0  0
   11.5109   -4.8257   16.6154 H   0  0  0  0  0  0  0  0  0  0  0  0
   10.2281   -3.4390   15.0206 H   0  0  0  0  0  0  0  0  0  0  0  0
   11.2185   -1.4029   14.0165 H   0  0  0  0  0  0  0  0  0  0  0  0
   13.4638    0.2478   14.4414 H   0  0  0  0  0  0  0  0  0  0  0  0
   17.7495    2.9018   19.7074 H   0  0  0  0  0  0  0  0  0  0  0  0
   16.5882    4.1693   19.7451 H   0  0  0  0  0  0  0  0  0  0  0  0
  1  2  1  0
  2  3  1  0
  3  4  1  0
  4  5  2  0
  4  6  1  0
  6  7  1  0
  7  8  1  0
  8  9  1  0
  9 10  1  0
 10 11  1  0
 11 12  2  0
 12 13  1  0
 13 14  2  0
 14 15  1  0
 15 16  2  0
 16 17  1  0
 17 18  2  0
 18 19  1  0
 19 20  2  0
 20 21  1  0
 12 22  1  0
 22 23  2  0
  9 24  1  0
 24  6  1  0
 23 10  1  0
 21 13  1  0
 20 15  1  0
  1 25  1  0
  1 26  1  0
  1 27  1  0
  2 28  1  0
  2 29  1  0
  3 30  1  0
  3 31  1  0
  7 32  1  0
  7 33  1  0
  8 34  1  0
  8 35  1  0
  9 36  1  0
 11 37  1  0
 14 38  1  0
 16 39  1  0
 17 40  1  0
 18 41  1  0
 19 42  1  0
 21 43  1  0
 24 44  1  0
 24 45  1  0
M  END
>  <Energy>  (87) 
92.22105714572966

>  <compound_id>  (87) 
53458

>  <target_id>  (87) 
1

>  <reference_id>  (87) 
124

>  <inspiration_ids>  (87) 
[124, 97]

>  <energy_score>  (87) 
60.284291597117075

>  <distance_score>  (87) 
6.256269616212501

>  <path>  (87) 
/opt/xchem-fragalysis-2/maxwin/BulkDock/SCRATCH/511024/C53458-P124/C53458-P124.minimised.mol

>  <scratch_subdir>  (87) 
/opt/xchem-fragalysis-2/maxwin/BulkDock/SCRATCH/511024/C53458-P124

>  <fragmenstein_runtime>  (87) 
8.580807447433472

>  <fragmenstein_outcome>  (87) 
too moved

>  <fragmenstein_mode>  (87) 
expansion

>  <fragmenstein_error>  (87) 


$$$$
C53458-P97
     RDKit          3D

 45 48  0  0  0  0  0  0  0  0999 V2000
   21.6356   10.0497   17.5039 C   0  0  0  0  0  0  0  0  0  0  0  0
   20.9003    9.0723   18.4064 C   0  0  0  0  0  0  0  0  0  0  0  0
   20.1300    8.0315   17.5958 C   0  0  0  0  0  0  0  0  0  0  0  0
   19.3761    7.0390   18.4843 C   0  0  0  0  0  0  0  0  0  0  0  0
   19.4099    7.1187   19.6826 O   0  0  0  0  0  0  0  0  0  0  0  0
   18.6488    6.1504   17.6331 N   0  0  0  0  0  0  0  0  0  0  0  0
   19.4717    4.9168   17.3352 C   0  0  0  0  0  0  0  0  0  0  0  0
   18.7869    4.0498   16.2968 C   0  0  0  0  0  0  0  0  0  0  0  0
   17.3779    4.1787   16.7832 C   0  0  0  0  0  0  0  0  0  0  0  0
   16.7644    2.9275   17.1244 N   0  0  0  0  0  0  0  0  0  0  0  0
   15.7665    2.2918   16.4494 C   0  0  0  0  0  0  0  0  0  0  0  0
   15.7060    1.0699   17.0657 C   0  0  0  0  0  0  0  0  0  0  0  0
   14.7892   -0.0962   16.6919 C   0  0  0  0  0  0  0  0  0  0  0  0
   14.8024   -1.3174   17.3171 C   0  0  0  0  0  0  0  0  0  0  0  0
   13.7719   -2.0951   16.7439 C   0  0  0  0  0  0  0  0  0  0  0  0
   13.2854   -3.3812   17.0110 C   0  0  0  0  0  0  0  0  0  0  0  0
   12.1790   -3.8281   16.2968 C   0  0  0  0  0  0  0  0  0  0  0  0
   11.5851   -3.0380   15.3134 C   0  0  0  0  0  0  0  0  0  0  0  0
   12.0686   -1.7661   15.0142 C   0  0  0  0  0  0  0  0  0  0  0  0
   13.1605   -1.3181   15.7577 C   0  0  0  0  0  0  0  0  0  0  0  0
   13.8367   -0.1208   15.7133 N   0  0  0  0  0  0  0  0  0  0  0  0
   16.6060    1.0190   18.0918 N   0  0  0  0  0  0  0  0  0  0  0  0
   17.2487    2.1750   18.1256 N   0  0  0  0  0  0  0  0  0  0  0  0
   17.6152    5.1107   17.9557 C   0  0  0  0  0  0  0  0  0  0  0  0
   22.1793   10.7852   18.1050 H   0  0  0  0  0  0  0  0  0  0  0  0
   22.3589    9.5289   16.8684 H   0  0  0  0  0  0  0  0  0  0  0  0
   20.9359   10.5895   16.8578 H   0  0  0  0  0  0  0  0  0  0  0  0
   21.6224    8.5740   19.0641 H   0  0  0  0  0  0  0  0  0  0  0  0
   20.2110    9.6272   19.0541 H   0  0  0  0  0  0  0  0  0  0  0  0
   19.4000    8.5341   16.9498 H   0  0  0  0  0  0  0  0  0  0  0  0
   20.8288    7.4805   16.9574 H   0  0  0  0  0  0  0  0  0  0  0  0
   19.7642    4.3789   18.2544 H   0  0  0  0  0  0  0  0  0  0  0  0
   20.4281    5.2581   16.9172 H   0  0  0  0  0  0  0  0  0  0  0  0
   18.8917    4.4896   15.2983 H   0  0  0  0  0  0  0  0  0  0  0  0
   19.1958    3.0353   16.2721 H   0  0  0  0  0  0  0  0  0  0  0  0
   16.7577    4.6675   16.0216 H   0  0  0  0  0  0  0  0  0  0  0  0
   15.2505    2.7261   15.6076 H   0  0  0  0  0  0  0  0  0  0  0  0
   15.4604   -1.6080   18.1268 H   0  0  0  0  0  0  0  0  0  0  0  0
   13.7309   -3.9999   17.7832 H   0  0  0  0  0  0  0  0  0  0  0  0
   11.7748   -4.8110   16.5199 H   0  0  0  0  0  0  0  0  0  0  0  0
   10.7316   -3.4212   14.7623 H   0  0  0  0  0  0  0  0  0  0  0  0
   11.6024   -1.1612   14.2429 H   0  0  0  0  0  0  0  0  0  0  0  0
   13.6199    0.6381   15.0845 H   0  0  0  0  0  0  0  0  0  0  0  0
   17.8192    4.6344   18.9299 H   0  0  0  0  0  0  0  0  0  0  0  0
   16.6940    5.6793   18.1461 H   0  0  0  0  0  0  0  0  0  0  0  0
  1  2  1  0
  2  3  1  0
  3  4  1  0
  4  5  2  0
  4  6  1  0
  6  7  1  0
  7  8  1  0
  8  9  1  0
  9 10  1  0
 10 11  1  0
 11 12  2  0
 12 13  1  0
 13 14  2  0
 14 15  1  0
 15 16  2  0
 16 17  1  0
 17 18  2  0
 18 19  1  0
 19 20  2  0
 20 21  1  0
 12 22  1  0
 22 23  2  0
  9 24  1  0
 24  6  1  0
 23 10  1  0
 21 13  1  0
 20 15  1  0
  1 25  1  0
  1 26  1  0
  1 27  1  0
  2 28  1  0
  2 29  1  0
  3 30  1  0
  3 31  1  0
  7 32  1  0
  7 33  1  0
  8 34  1  0
  8 35  1  0
  9 36  1  0
 11 37  1  0
 14 38  1  0
 16 39  1  0
 17 40  1  0
 18 41  1  0
 19 42  1  0
 21 43  1  0
 24 44  1  0
 24 45  1  0
M  END
>  <Energy>  (88) 
55.364643624725957

>  <compound_id>  (88) 
53458

>  <target_id>  (88) 
1

>  <reference_id>  (88) 
97

>  <inspiration_ids>  (88) 
[124, 97]

>  <energy_score>  (88) 
25.066888621048605

>  <distance_score>  (88) 
6.912557189702776

>  <path>  (88) 
/opt/xchem-fragalysis-2/maxwin/BulkDock/SCRATCH/511024/C53458-P97/C53458-P97.minimised.mol

>  <scratch_subdir>  (88) 
/opt/xchem-fragalysis-2/maxwin/BulkDock/SCRATCH/511024/C53458-P97

>  <fragmenstein_runtime>  (88) 
11.14550518989563

>  <fragmenstein_outcome>  (88) 
too moved

>  <fragmenstein_mode>  (88) 
expansion

>  <fragmenstein_error>  (88) 


$$$$
C53459-P124
     RDKit          3D

 52 54  0  0  0  0  0  0  0  0999 V2000
   15.5809    6.5734   15.9512 C   0  0  0  0  0  0  0  0  0  0  0  0
   14.2562    6.2236   15.2766 C   0  0  0  0  0  0  0  0  0  0  0  0
   13.8320    7.3664   14.3497 C   0  0  0  0  0  0  0  0  0  0  0  0
   14.3077    4.9035   14.4823 C   0  0  0  0  0  0  0  0  0  0  0  0
   14.6120    3.6604   15.3266 C   0  0  0  0  0  0  0  0  0  0  0  0
   16.0862    3.2478   15.2805 C   0  0  0  0  0  0  0  0  0  0  0  0
   16.3651    2.0137   16.1419 C   0  0  0  0  0  0  0  0  0  0  0  0
   15.4881    1.4823   16.7729 O   0  0  0  0  0  0  0  0  0  0  0  0
   17.7700    1.7291   16.0758 N   0  0  0  0  0  0  0  0  0  0  0  0
   18.0473    0.7521   14.9670 C   0  0  0  0  0  0  0  0  0  0  0  0
   19.5027    0.4521   14.7797 C   0  0  0  0  0  0  0  0  0  0  0  0
   19.7310   -0.0508   16.1463 C   0  0  0  0  0  0  0  0  0  0  0  0
   18.6378    0.7257   16.8770 C   0  0  0  0  0  0  0  0  0  0  0  0
   17.8811   -0.1108   17.9439 C   0  0  0  0  0  0  0  0  0  0  0  0
   16.7569   -0.8250   17.4088 N   0  0  0  0  0  0  0  0  0  0  0  0
   16.5039   -2.2186   17.2966 C   0  0  0  0  0  0  0  0  0  0  0  0
   17.1943   -3.1581   17.5465 O   0  0  0  0  0  0  0  0  0  0  0  0
   15.1786   -2.4261   16.7206 C   0  0  0  0  0  0  0  0  0  0  0  0
   14.2057   -3.3309   17.1371 C   0  0  0  0  0  0  0  0  0  0  0  0
   13.1303   -3.1041   16.2698 C   0  0  0  0  0  0  0  0  0  0  0  0
   11.8604   -3.5452   16.1026 O   0  0  0  0  0  0  0  0  0  0  0  0
   11.3926   -2.8306   15.0413 C   0  0  0  0  0  0  0  0  0  0  0  0
   12.3141   -1.9475   14.5307 C   0  0  0  0  0  0  0  0  0  0  0  0
   13.4264   -2.1512   15.3647 C   0  0  0  0  0  0  0  0  0  0  0  0
   14.7000   -1.7330   15.6152 N   0  0  0  0  0  0  0  0  0  0  0  0
   16.4041    6.5876   15.2291 H   0  0  0  0  0  0  0  0  0  0  0  0
   15.8234    5.8556   16.7404 H   0  0  0  0  0  0  0  0  0  0  0  0
   15.5292    7.5610   16.4225 H   0  0  0  0  0  0  0  0  0  0  0  0
   13.4916    6.1292   16.0584 H   0  0  0  0  0  0  0  0  0  0  0  0
   14.5609    7.5176   13.5462 H   0  0  0  0  0  0  0  0  0  0  0  0
   12.8598    7.1562   13.8914 H   0  0  0  0  0  0  0  0  0  0  0  0
   13.7403    8.3055   14.9057 H   0  0  0  0  0  0  0  0  0  0  0  0
   13.3199    4.7554   14.0249 H   0  0  0  0  0  0  0  0  0  0  0  0
   15.0183    4.9856   13.6505 H   0  0  0  0  0  0  0  0  0  0  0  0
   14.2800    3.8057   16.3616 H   0  0  0  0  0  0  0  0  0  0  0  0
   14.0175    2.8252   14.9324 H   0  0  0  0  0  0  0  0  0  0  0  0
   16.7278    4.0588   15.6377 H   0  0  0  0  0  0  0  0  0  0  0  0
   16.3634    3.0279   14.2440 H   0  0  0  0  0  0  0  0  0  0  0  0
   17.6923    1.2331   14.0453 H   0  0  0  0  0  0  0  0  0  0  0  0
   17.4147   -0.1460   15.0440 H   0  0  0  0  0  0  0  0  0  0  0  0
   19.7000   -0.2905   14.0028 H   0  0  0  0  0  0  0  0  0  0  0  0
   20.0792    1.3600   14.5721 H   0  0  0  0  0  0  0  0  0  0  0  0
   20.7371    0.1689   16.5164 H   0  0  0  0  0  0  0  0  0  0  0  0
   19.5728   -1.1336   16.2100 H   0  0  0  0  0  0  0  0  0  0  0  0
   19.2070    1.4360   17.4996 H   0  0  0  0  0  0  0  0  0  0  0  0
   17.4778    0.5580   18.7126 H   0  0  0  0  0  0  0  0  0  0  0  0
   18.5565   -0.8187   18.4361 H   0  0  0  0  0  0  0  0  0  0  0  0
   15.9036   -0.3132   17.1838 H   0  0  0  0  0  0  0  0  0  0  0  0
   14.2714   -4.0149   17.9694 H   0  0  0  0  0  0  0  0  0  0  0  0
   10.3753   -3.0567   14.7614 H   0  0  0  0  0  0  0  0  0  0  0  0
   12.1759   -1.2673   13.7037 H   0  0  0  0  0  0  0  0  0  0  0  0
   15.1773   -1.0198   15.0792 H   0  0  0  0  0  0  0  0  0  0  0  0
  1  2  1  0
  2  3  1  0
  2  4  1  0
  4  5  1  0
  5  6  1  0
  6  7  1  0
  7  8  2  0
  7  9  1  0
  9 10  1  0
 10 11  1  0
 11 12  1  0
 12 13  1  0
 13 14  1  0
 14 15  1  0
 15 16  1  0
 16 17  2  0
 16 18  1  0
 18 19  2  0
 19 20  1  0
 20 21  1  0
 21 22  1  0
 22 23  2  0
 23 24  1  0
 24 25  1  0
 13  9  1  0
 25 18  1  0
 24 20  2  0
  1 26  1  0
  1 27  1  0
  1 28  1  0
  2 29  1  0
  3 30  1  0
  3 31  1  0
  3 32  1  0
  4 33  1  0
  4 34  1  0
  5 35  1  0
  5 36  1  0
  6 37  1  0
  6 38  1  0
 10 39  1  0
 10 40  1  0
 11 41  1  0
 11 42  1  0
 12 43  1  0
 12 44  1  0
 13 45  1  0
 14 46  1  0
 14 47  1  0
 15 48  1  0
 19 49  1  0
 22 50  1  0
 23 51  1  0
 25 52  1  0
M  END
>  <Energy>  (89) 
57.522679286800191

>  <compound_id>  (89) 
53459

>  <target_id>  (89) 
1

>  <reference_id>  (89) 
124

>  <inspiration_ids>  (89) 
[124, 97]

>  <energy_score>  (89) 
19.564473206442784

>  <distance_score>  (89) 
3.313994260525904

>  <path>  (89) 
/opt/xchem-fragalysis-2/maxwin/BulkDock/SCRATCH/511024/C53459-P124/C53459-P124.minimised.mol

>  <scratch_subdir>  (89) 
/opt/xchem-fragalysis-2/maxwin/BulkDock/SCRATCH/511024/C53459-P124

>  <fragmenstein_runtime>  (89) 
10.23089337348938

>  <fragmenstein_outcome>  (89) 
too moved

>  <fragmenstein_mode>  (89) 
expansion

>  <fragmenstein_error>  (89) 


$$$$
C53459-P97
     RDKit          3D

 52 54  0  0  0  0  0  0  0  0999 V2000
   10.4711    6.7431    8.1570 C   0  0  0  0  0  0  0  0  0  0  0  0
   10.6658    5.2887    8.5963 C   0  0  0  0  0  0  0  0  0  0  0  0
    9.3013    4.6114    8.7265 C   0  0  0  0  0  0  0  0  0  0  0  0
   11.5785    4.5602    7.5940 C   0  0  0  0  0  0  0  0  0  0  0  0
   12.0373    3.1521    8.0017 C   0  0  0  0  0  0  0  0  0  0  0  0
   12.9909    3.1392    9.1994 C   0  0  0  0  0  0  0  0  0  0  0  0
   12.2922    3.0152   10.5567 C   0  0  0  0  0  0  0  0  0  0  0  0
   11.2333    2.4577   10.6753 O   0  0  0  0  0  0  0  0  0  0  0  0
   13.1025    3.6856   11.5244 N   0  0  0  0  0  0  0  0  0  0  0  0
   14.0828    2.7189   12.1419 C   0  0  0  0  0  0  0  0  0  0  0  0
   15.0143    3.3252   13.1648 C   0  0  0  0  0  0  0  0  0  0  0  0
   14.1029    4.3348   13.7554 C   0  0  0  0  0  0  0  0  0  0  0  0
   12.8400    4.0091   12.9824 C   0  0  0  0  0  0  0  0  0  0  0  0
   11.7112    3.2361   13.7357 C   0  0  0  0  0  0  0  0  0  0  0  0
   12.0325    1.9212   14.2278 N   0  0  0  0  0  0  0  0  0  0  0  0
   12.8155    1.5065   15.3390 C   0  0  0  0  0  0  0  0  0  0  0  0
   13.4749    2.1389   16.1072 O   0  0  0  0  0  0  0  0  0  0  0  0
   12.7764    0.0565   15.5359 C   0  0  0  0  0  0  0  0  0  0  0  0
   11.8944   -0.9276   15.0880 C   0  0  0  0  0  0  0  0  0  0  0  0
   12.3423   -2.0996   15.7145 C   0  0  0  0  0  0  0  0  0  0  0  0
   11.9521   -3.3916   15.8159 O   0  0  0  0  0  0  0  0  0  0  0  0
   12.8666   -3.9565   16.6572 C   0  0  0  0  0  0  0  0  0  0  0  0
   13.8325   -3.0748   17.0824 C   0  0  0  0  0  0  0  0  0  0  0  0
   13.4377   -1.8738   16.4626 C   0  0  0  0  0  0  0  0  0  0  0  0
   13.7339   -0.5489   16.3481 N   0  0  0  0  0  0  0  0  0  0  0  0
    9.9947    6.8017    7.1724 H   0  0  0  0  0  0  0  0  0  0  0  0
   11.4327    7.2642    8.1005 H   0  0  0  0  0  0  0  0  0  0  0  0
    9.8414    7.2844    8.8713 H   0  0  0  0  0  0  0  0  0  0  0  0
   11.1436    5.3079    9.5816 H   0  0  0  0  0  0  0  0  0  0  0  0
    8.7806    4.5783    7.7634 H   0  0  0  0  0  0  0  0  0  0  0  0
    9.3954    3.5869    9.0922 H   0  0  0  0  0  0  0  0  0  0  0  0
    8.6656    5.1543    9.4342 H   0  0  0  0  0  0  0  0  0  0  0  0
   11.0592    4.4835    6.6295 H   0  0  0  0  0  0  0  0  0  0  0  0
   12.4712    5.1715    7.4075 H   0  0  0  0  0  0  0  0  0  0  0  0
   11.1767    2.4951    8.1597 H   0  0  0  0  0  0  0  0  0  0  0  0
   12.5813    2.7357    7.1438 H   0  0  0  0  0  0  0  0  0  0  0  0
   13.6353    4.0259    9.1792 H   0  0  0  0  0  0  0  0  0  0  0  0
   13.6476    2.2650    9.1131 H   0  0  0  0  0  0  0  0  0  0  0  0
   14.7115    2.3704   11.3087 H   0  0  0  0  0  0  0  0  0  0  0  0
   13.5971    1.7875   12.4601 H   0  0  0  0  0  0  0  0  0  0  0  0
   15.3760    2.5827   13.8814 H   0  0  0  0  0  0  0  0  0  0  0  0
   15.8801    3.8027   12.6938 H   0  0  0  0  0  0  0  0  0  0  0  0
   14.4577    5.3453   13.5195 H   0  0  0  0  0  0  0  0  0  0  0  0
   13.9947    4.2667   14.8393 H   0  0  0  0  0  0  0  0  0  0  0  0
   12.3510    4.9903   12.8612 H   0  0  0  0  0  0  0  0  0  0  0  0
   10.8212    3.1416   13.1066 H   0  0  0  0  0  0  0  0  0  0  0  0
   11.4275    3.8254   14.6162 H   0  0  0  0  0  0  0  0  0  0  0  0
   11.5412    1.1183   13.8527 H   0  0  0  0  0  0  0  0  0  0  0  0
   11.0283   -0.8302   14.4482 H   0  0  0  0  0  0  0  0  0  0  0  0
   12.6898   -5.0027   16.8549 H   0  0  0  0  0  0  0  0  0  0  0  0
   14.6585   -3.2725   17.7484 H   0  0  0  0  0  0  0  0  0  0  0  0
   14.4989   -0.0791   16.8181 H   0  0  0  0  0  0  0  0  0  0  0  0
  1  2  1  0
  2  3  1  0
  2  4  1  0
  4  5  1  0
  5  6  1  0
  6  7  1  0
  7  8  2  0
  7  9  1  0
  9 10  1  0
 10 11  1  0
 11 12  1  0
 12 13  1  0
 13 14  1  0
 14 15  1  0
 15 16  1  0
 16 17  2  0
 16 18  1  0
 18 19  2  0
 19 20  1  0
 20 21  1  0
 21 22  1  0
 22 23  2  0
 23 24  1  0
 24 25  1  0
 13  9  1  0
 25 18  1  0
 24 20  2  0
  1 26  1  0
  1 27  1  0
  1 28  1  0
  2 29  1  0
  3 30  1  0
  3 31  1  0
  3 32  1  0
  4 33  1  0
  4 34  1  0
  5 35  1  0
  5 36  1  0
  6 37  1  0
  6 38  1  0
 10 39  1  0
 10 40  1  0
 11 41  1  0
 11 42  1  0
 12 43  1  0
 12 44  1  0
 13 45  1  0
 14 46  1  0
 14 47  1  0
 15 48  1  0
 19 49  1  0
 22 50  1  0
 23 51  1  0
 25 52  1  0
M  END
>  <Energy>  (90) 
52.384850127863622

>  <compound_id>  (90) 
53459

>  <target_id>  (90) 
1

>  <reference_id>  (90) 
97

>  <inspiration_ids>  (90) 
[124, 97]

>  <energy_score>  (90) 
14.426644047505931

>  <distance_score>  (90) 
5.7175838482538754

>  <path>  (90) 
/opt/xchem-fragalysis-2/maxwin/BulkDock/SCRATCH/511024/C53459-P97/C53459-P97.minimised.mol

>  <scratch_subdir>  (90) 
/opt/xchem-fragalysis-2/maxwin/BulkDock/SCRATCH/511024/C53459-P97

>  <fragmenstein_runtime>  (90) 
8.84722089767456

>  <fragmenstein_outcome>  (90) 
too moved

>  <fragmenstein_mode>  (90) 
expansion

>  <fragmenstein_error>  (90) 


$$$$
C53460-P124
     RDKit          3D

 49 51  0  0  0  0  0  0  0  0999 V2000
   19.4084   -4.0160   11.9790 C   0  0  0  0  0  0  0  0  0  0  0  0
   18.9684   -2.5553   11.9936 C   0  0  0  0  0  0  0  0  0  0  0  0
   17.6359   -2.3941   11.2535 C   0  0  0  0  0  0  0  0  0  0  0  0
   18.8291   -2.0310   13.4280 C   0  0  0  0  0  0  0  0  0  0  0  0
   20.1471   -1.8940   14.2233 C   0  0  0  0  0  0  0  0  0  0  0  0
   20.4829   -3.0532   15.1808 C   0  0  0  0  0  0  0  0  0  0  0  0
   20.0616   -2.8370   16.6528 C   0  0  0  0  0  0  0  0  0  0  0  0
   20.8304   -2.3858   17.4594 O   0  0  0  0  0  0  0  0  0  0  0  0
   18.7211   -3.2855   16.8044 N   0  0  0  0  0  0  0  0  0  0  0  0
   17.8575   -3.4470   18.0498 C   0  0  0  0  0  0  0  0  0  0  0  0
   16.3438   -3.3909   17.7265 C   0  0  0  0  0  0  0  0  0  0  0  0
   16.4471   -2.8329   16.3489 C   0  0  0  0  0  0  0  0  0  0  0  0
   15.5151   -1.9176   15.7916 N   0  0  0  0  0  0  0  0  0  0  0  0
   14.1071   -1.9889   15.6574 C   0  0  0  0  0  0  0  0  0  0  0  0
   13.3277   -2.8005   16.0494 O   0  0  0  0  0  0  0  0  0  0  0  0
   13.6703   -0.8818   14.8055 C   0  0  0  0  0  0  0  0  0  0  0  0
   12.6380   -0.8983   13.8697 C   0  0  0  0  0  0  0  0  0  0  0  0
   12.6951    0.3736   13.2751 C   0  0  0  0  0  0  0  0  0  0  0  0
   12.0466    1.0705   12.3062 O   0  0  0  0  0  0  0  0  0  0  0  0
   12.6744    2.2795   12.2716 C   0  0  0  0  0  0  0  0  0  0  0  0
   13.6918    2.3848   13.1921 C   0  0  0  0  0  0  0  0  0  0  0  0
   13.6633    1.1284   13.8243 C   0  0  0  0  0  0  0  0  0  0  0  0
   14.2353    0.3915   14.8158 N   0  0  0  0  0  0  0  0  0  0  0  0
   17.7809   -2.1784   16.5654 C   0  0  0  0  0  0  0  0  0  0  0  0
   20.4287   -4.1200   12.3619 H   0  0  0  0  0  0  0  0  0  0  0  0
   18.7540   -4.6408   12.5938 H   0  0  0  0  0  0  0  0  0  0  0  0
   19.4019   -4.4169   10.9598 H   0  0  0  0  0  0  0  0  0  0  0  0
   19.7200   -1.9591   11.4613 H   0  0  0  0  0  0  0  0  0  0  0  0
   16.8240   -2.9163   11.7671 H   0  0  0  0  0  0  0  0  0  0  0  0
   17.3595   -1.3365   11.1824 H   0  0  0  0  0  0  0  0  0  0  0  0
   17.7073   -2.7872   10.2343 H   0  0  0  0  0  0  0  0  0  0  0  0
   18.1223   -2.6845   13.9466 H   0  0  0  0  0  0  0  0  0  0  0  0
   18.3720   -1.0337   13.3806 H   0  0  0  0  0  0  0  0  0  0  0  0
   20.1136   -0.9612   14.8004 H   0  0  0  0  0  0  0  0  0  0  0  0
   20.9749   -1.7766   13.5131 H   0  0  0  0  0  0  0  0  0  0  0  0
   21.5724   -3.1880   15.1988 H   0  0  0  0  0  0  0  0  0  0  0  0
   20.0693   -4.0018   14.8209 H   0  0  0  0  0  0  0  0  0  0  0  0
   18.1076   -4.4384   18.4490 H   0  0  0  0  0  0  0  0  0  0  0  0
   18.1678   -2.7420   18.8383 H   0  0  0  0  0  0  0  0  0  0  0  0
   15.8811   -4.3805   17.7394 H   0  0  0  0  0  0  0  0  0  0  0  0
   15.8127   -2.7439   18.4322 H   0  0  0  0  0  0  0  0  0  0  0  0
   16.5223   -3.6547   15.6237 H   0  0  0  0  0  0  0  0  0  0  0  0
   15.8560   -1.1313   15.2593 H   0  0  0  0  0  0  0  0  0  0  0  0
   11.9683   -1.7175   13.6462 H   0  0  0  0  0  0  0  0  0  0  0  0
   12.2747    2.9693   11.5409 H   0  0  0  0  0  0  0  0  0  0  0  0
   14.3266    3.2379   13.3747 H   0  0  0  0  0  0  0  0  0  0  0  0
   14.9420    0.7553   15.4422 H   0  0  0  0  0  0  0  0  0  0  0  0
   17.8145   -1.3695   17.3227 H   0  0  0  0  0  0  0  0  0  0  0  0
   18.0749   -1.6241   15.6797 H   0  0  0  0  0  0  0  0  0  0  0  0
  1  2  1  0
  2  3  1  0
  2  4  1  0
  4  5  1  0
  5  6  1  0
  6  7  1  0
  7  8  2  0
  7  9  1  0
  9 10  1  0
 10 11  1  0
 11 12  1  0
 12 13  1  0
 13 14  1  0
 14 15  2  0
 14 16  1  0
 16 17  2  0
 17 18  1  0
 18 19  1  0
 19 20  1  0
 20 21  2  0
 21 22  1  0
 22 23  1  0
 12 24  1  0
 24  9  1  0
 23 16  1  0
 22 18  2  0
  1 25  1  0
  1 26  1  0
  1 27  1  0
  2 28  1  0
  3 29  1  0
  3 30  1  0
  3 31  1  0
  4 32  1  0
  4 33  1  0
  5 34  1  0
  5 35  1  0
  6 36  1  0
  6 37  1  0
 10 38  1  0
 10 39  1  0
 11 40  1  0
 11 41  1  0
 12 42  1  0
 13 43  1  0
 17 44  1  0
 20 45  1  0
 21 46  1  0
 23 47  1  0
 24 48  1  0
 24 49  1  0
M  END
>  <Energy>  (91) 
71.598052239549105

>  <compound_id>  (91) 
53460

>  <target_id>  (91) 
1

>  <reference_id>  (91) 
124

>  <inspiration_ids>  (91) 
[124, 97]

>  <energy_score>  (91) 
45.98557907776279

>  <distance_score>  (91) 
3.363727993451867

>  <path>  (91) 
/opt/xchem-fragalysis-2/maxwin/BulkDock/SCRATCH/511024/C53460-P124/C53460-P124.minimised.mol

>  <scratch_subdir>  (91) 
/opt/xchem-fragalysis-2/maxwin/BulkDock/SCRATCH/511024/C53460-P124

>  <fragmenstein_runtime>  (91) 
10.1400465965271

>  <fragmenstein_outcome>  (91) 
too moved

>  <fragmenstein_mode>  (91) 
expansion

>  <fragmenstein_error>  (91) 


$$$$
C53460-P97
     RDKit          3D

 49 51  0  0  0  0  0  0  0  0999 V2000
   17.5867   -2.6338   12.5134 C   0  0  0  0  0  0  0  0  0  0  0  0
   16.7673   -1.3483   12.6184 C   0  0  0  0  0  0  0  0  0  0  0  0
   15.2973   -1.6383   12.3105 C   0  0  0  0  0  0  0  0  0  0  0  0
   16.8977   -0.6904   14.0050 C   0  0  0  0  0  0  0  0  0  0  0  0
   18.3453   -0.3719   14.3842 C   0  0  0  0  0  0  0  0  0  0  0  0
   18.4950    0.4164   15.6797 C   0  0  0  0  0  0  0  0  0  0  0  0
   17.9352   -0.2365   16.9469 C   0  0  0  0  0  0  0  0  0  0  0  0
   16.7701   -0.0880   17.2216 O   0  0  0  0  0  0  0  0  0  0  0  0
   18.9879   -0.8763   17.6748 N   0  0  0  0  0  0  0  0  0  0  0  0
   19.0086   -1.4680   19.0557 C   0  0  0  0  0  0  0  0  0  0  0  0
   18.0322   -2.5970   19.3069 C   0  0  0  0  0  0  0  0  0  0  0  0
   17.9931   -3.2054   17.9479 C   0  0  0  0  0  0  0  0  0  0  0  0
   16.6836   -3.0160   17.3792 N   0  0  0  0  0  0  0  0  0  0  0  0
   15.4507   -3.6896   17.6234 C   0  0  0  0  0  0  0  0  0  0  0  0
   15.2028   -4.6372   18.3047 O   0  0  0  0  0  0  0  0  0  0  0  0
   14.3586   -2.9657   16.9552 C   0  0  0  0  0  0  0  0  0  0  0  0
   13.1220   -3.4740   16.5541 C   0  0  0  0  0  0  0  0  0  0  0  0
   12.4855   -2.3890   15.9336 C   0  0  0  0  0  0  0  0  0  0  0  0
   11.3143   -2.1289   15.3022 O   0  0  0  0  0  0  0  0  0  0  0  0
   11.4070   -0.8159   14.9360 C   0  0  0  0  0  0  0  0  0  0  0  0
   12.5790   -0.2222   15.3439 C   0  0  0  0  0  0  0  0  0  0  0  0
   13.2415   -1.2775   15.9971 C   0  0  0  0  0  0  0  0  0  0  0  0
   14.3699   -1.5959   16.6918 N   0  0  0  0  0  0  0  0  0  0  0  0
   19.0813   -2.3520   17.2886 C   0  0  0  0  0  0  0  0  0  0  0  0
   18.6604   -2.4216   12.5228 H   0  0  0  0  0  0  0  0  0  0  0  0
   17.3686   -3.3103   13.3456 H   0  0  0  0  0  0  0  0  0  0  0  0
   17.3767   -3.1539   11.5729 H   0  0  0  0  0  0  0  0  0  0  0  0
   17.1365   -0.6460   11.8602 H   0  0  0  0  0  0  0  0  0  0  0  0
   14.8662   -2.3245   13.0454 H   0  0  0  0  0  0  0  0  0  0  0  0
   14.7079   -0.7154   12.3262 H   0  0  0  0  0  0  0  0  0  0  0  0
   15.1850   -2.0880   11.3181 H   0  0  0  0  0  0  0  0  0  0  0  0
   16.4647   -1.3581   14.7545 H   0  0  0  0  0  0  0  0  0  0  0  0
   16.3070    0.2340   14.0211 H   0  0  0  0  0  0  0  0  0  0  0  0
   18.9300   -1.2922   14.4512 H   0  0  0  0  0  0  0  0  0  0  0  0
   18.7981    0.2183   13.5773 H   0  0  0  0  0  0  0  0  0  0  0  0
   19.5579    0.6397   15.8380 H   0  0  0  0  0  0  0  0  0  0  0  0
   18.0031    1.3925   15.5778 H   0  0  0  0  0  0  0  0  0  0  0  0
   20.0435   -1.7268   19.3340 H   0  0  0  0  0  0  0  0  0  0  0  0
   18.7424   -0.6382   19.7242 H   0  0  0  0  0  0  0  0  0  0  0  0
   18.4211   -3.2794   20.0695 H   0  0  0  0  0  0  0  0  0  0  0  0
   17.0630   -2.2185   19.6512 H   0  0  0  0  0  0  0  0  0  0  0  0
   18.2220   -4.2748   17.9453 H   0  0  0  0  0  0  0  0  0  0  0  0
   16.5353   -2.3027   16.6822 H   0  0  0  0  0  0  0  0  0  0  0  0
   12.7694   -4.4893   16.6809 H   0  0  0  0  0  0  0  0  0  0  0  0
   10.5491   -0.4445   14.3923 H   0  0  0  0  0  0  0  0  0  0  0  0
   12.8906    0.7995   15.1925 H   0  0  0  0  0  0  0  0  0  0  0  0
   15.0855   -0.9192   16.9535 H   0  0  0  0  0  0  0  0  0  0  0  0
   20.0994   -2.7267   17.4903 H   0  0  0  0  0  0  0  0  0  0  0  0
   18.9695   -2.4272   16.2030 H   0  0  0  0  0  0  0  0  0  0  0  0
  1  2  1  0
  2  3  1  0
  2  4  1  0
  4  5  1  0
  5  6  1  0
  6  7  1  0
  7  8  2  0
  7  9  1  0
  9 10  1  0
 10 11  1  0
 11 12  1  0
 12 13  1  0
 13 14  1  0
 14 15  2  0
 14 16  1  0
 16 17  2  0
 17 18  1  0
 18 19  1  0
 19 20  1  0
 20 21  2  0
 21 22  1  0
 22 23  1  0
 12 24  1  0
 24  9  1  0
 23 16  1  0
 22 18  2  0
  1 25  1  0
  1 26  1  0
  1 27  1  0
  2 28  1  0
  3 29  1  0
  3 30  1  0
  3 31  1  0
  4 32  1  0
  4 33  1  0
  5 34  1  0
  5 35  1  0
  6 36  1  0
  6 37  1  0
 10 38  1  0
 10 39  1  0
 11 40  1  0
 11 41  1  0
 12 42  1  0
 13 43  1  0
 17 44  1  0
 20 45  1  0
 21 46  1  0
 23 47  1  0
 24 48  1  0
 24 49  1  0
M  END
>  <Energy>  (92) 
45.049947130492711

>  <compound_id>  (92) 
53460

>  <target_id>  (92) 
1

>  <reference_id>  (92) 
97

>  <inspiration_ids>  (92) 
[124, 97]

>  <energy_score>  (92) 
19.437473968704325

>  <distance_score>  (92) 
2.9244092510456734

>  <path>  (92) 
/opt/xchem-fragalysis-2/maxwin/BulkDock/SCRATCH/511024/C53460-P97/C53460-P97.minimised.mol

>  <scratch_subdir>  (92) 
/opt/xchem-fragalysis-2/maxwin/BulkDock/SCRATCH/511024/C53460-P97

>  <fragmenstein_runtime>  (92) 
9.196616172790527

>  <fragmenstein_outcome>  (92) 
too moved

>  <fragmenstein_mode>  (92) 
expansion

>  <fragmenstein_error>  (92) 


$$$$
C53461-P124
     RDKit          3D

 49 51  0  0  0  0  0  0  0  0999 V2000
   16.5948   -2.0540   11.4903 C   0  0  0  0  0  0  0  0  0  0  0  0
   17.5069   -1.8237   12.6938 C   0  0  0  0  0  0  0  0  0  0  0  0
   17.6586   -0.3260   12.9363 C   0  0  0  0  0  0  0  0  0  0  0  0
   18.8621   -2.5251   12.4728 C   0  0  0  0  0  0  0  0  0  0  0  0
   19.8374   -2.3806   13.6553 C   0  0  0  0  0  0  0  0  0  0  0  0
   20.8090   -3.5791   13.8006 C   0  0  0  0  0  0  0  0  0  0  0  0
   20.6100   -4.2444   15.1685 C   0  0  0  0  0  0  0  0  0  0  0  0
   21.0164   -3.6860   16.1549 O   0  0  0  0  0  0  0  0  0  0  0  0
   19.8465   -5.4492   15.0287 N   0  0  0  0  0  0  0  0  0  0  0  0
   19.3959   -6.4754   16.0739 C   0  0  0  0  0  0  0  0  0  0  0  0
   18.3056   -5.9996   17.0662 C   0  0  0  0  0  0  0  0  0  0  0  0
   17.9475   -4.7271   16.4029 C   0  0  0  0  0  0  0  0  0  0  0  0
   16.6264   -4.2024   16.3356 N   0  0  0  0  0  0  0  0  0  0  0  0
   15.6943   -3.8871   17.3594 C   0  0  0  0  0  0  0  0  0  0  0  0
   15.7445   -4.0550   18.5369 O   0  0  0  0  0  0  0  0  0  0  0  0
   14.6196   -3.1793   16.7014 C   0  0  0  0  0  0  0  0  0  0  0  0
   13.2723   -3.4739   16.4886 C   0  0  0  0  0  0  0  0  0  0  0  0
   12.8731   -2.5433   15.5318 C   0  0  0  0  0  0  0  0  0  0  0  0
   11.7098   -2.3181   14.8107 C   0  0  0  0  0  0  0  0  0  0  0  0
   11.9182   -1.2083   13.9950 C   0  0  0  0  0  0  0  0  0  0  0  0
   13.5330   -0.5698   14.0832 S   0  0  0  0  0  0  0  0  0  0  0  0
   13.8671   -1.6944   15.2470 C   0  0  0  0  0  0  0  0  0  0  0  0
   14.9160   -1.9917   16.0268 N   0  0  0  0  0  0  0  0  0  0  0  0
   18.4042   -5.1435   15.0262 C   0  0  0  0  0  0  0  0  0  0  0  0
   16.4820   -3.1183   11.2730 H   0  0  0  0  0  0  0  0  0  0  0  0
   16.9977   -1.5745   10.5912 H   0  0  0  0  0  0  0  0  0  0  0  0
   15.5962   -1.6431   11.6704 H   0  0  0  0  0  0  0  0  0  0  0  0
   17.0230   -2.2680   13.5723 H   0  0  0  0  0  0  0  0  0  0  0  0
   18.2202   -0.1255   13.8540 H   0  0  0  0  0  0  0  0  0  0  0  0
   16.6805    0.1544   13.0425 H   0  0  0  0  0  0  0  0  0  0  0  0
   18.1832    0.1594   12.1062 H   0  0  0  0  0  0  0  0  0  0  0  0
   18.6677   -3.5860   12.2742 H   0  0  0  0  0  0  0  0  0  0  0  0
   19.3452   -2.1335   11.5683 H   0  0  0  0  0  0  0  0  0  0  0  0
   20.4285   -1.4688   13.5027 H   0  0  0  0  0  0  0  0  0  0  0  0
   19.2786   -2.2282   14.5866 H   0  0  0  0  0  0  0  0  0  0  0  0
   20.6871   -4.3125   12.9965 H   0  0  0  0  0  0  0  0  0  0  0  0
   21.8473   -3.2295   13.7574 H   0  0  0  0  0  0  0  0  0  0  0  0
   20.3002   -6.7244   16.6441 H   0  0  0  0  0  0  0  0  0  0  0  0
   19.1007   -7.4003   15.5543 H   0  0  0  0  0  0  0  0  0  0  0  0
   17.4865   -6.7232   17.1215 H   0  0  0  0  0  0  0  0  0  0  0  0
   18.7036   -5.8472   18.0741 H   0  0  0  0  0  0  0  0  0  0  0  0
   18.5556   -3.9133   16.8130 H   0  0  0  0  0  0  0  0  0  0  0  0
   16.2105   -3.9896   15.4318 H   0  0  0  0  0  0  0  0  0  0  0  0
   12.7230   -4.3145   16.8921 H   0  0  0  0  0  0  0  0  0  0  0  0
   10.7777   -2.8637   14.8624 H   0  0  0  0  0  0  0  0  0  0  0  0
   11.2092   -0.7012   13.3605 H   0  0  0  0  0  0  0  0  0  0  0  0
   15.8162   -1.5284   16.0293 H   0  0  0  0  0  0  0  0  0  0  0  0
   17.8119   -5.9568   14.5675 H   0  0  0  0  0  0  0  0  0  0  0  0
   18.2354   -4.3108   14.3426 H   0  0  0  0  0  0  0  0  0  0  0  0
  1  2  1  0
  2  3  1  0
  2  4  1  0
  4  5  1  0
  5  6  1  0
  6  7  1  0
  7  8  2  0
  7  9  1  0
  9 10  1  0
 10 11  1  0
 11 12  1  0
 12 13  1  0
 13 14  1  0
 14 15  2  0
 14 16  1  0
 16 17  2  0
 17 18  1  0
 18 19  1  0
 19 20  2  0
 20 21  1  0
 21 22  1  0
 22 23  1  0
 12 24  1  0
 24  9  1  0
 23 16  1  0
 22 18  2  0
  1 25  1  0
  1 26  1  0
  1 27  1  0
  2 28  1  0
  3 29  1  0
  3 30  1  0
  3 31  1  0
  4 32  1  0
  4 33  1  0
  5 34  1  0
  5 35  1  0
  6 36  1  0
  6 37  1  0
 10 38  1  0
 10 39  1  0
 11 40  1  0
 11 41  1  0
 12 42  1  0
 13 43  1  0
 17 44  1  0
 19 45  1  0
 20 46  1  0
 23 47  1  0
 24 48  1  0
 24 49  1  0
M  END
>  <Energy>  (93) 
73.6959193321089

>  <compound_id>  (93) 
53461

>  <target_id>  (93) 
1

>  <reference_id>  (93) 
124

>  <inspiration_ids>  (93) 
[124, 97]

>  <energy_score>  (93) 
44.982883374367646

>  <distance_score>  (93) 
4.149401091558069

>  <path>  (93) 
/opt/xchem-fragalysis-2/maxwin/BulkDock/SCRATCH/511024/C53461-P124/C53461-P124.minimised.mol

>  <scratch_subdir>  (93) 
/opt/xchem-fragalysis-2/maxwin/BulkDock/SCRATCH/511024/C53461-P124

>  <fragmenstein_runtime>  (93) 
7.470815658569336

>  <fragmenstein_outcome>  (93) 
too moved

>  <fragmenstein_mode>  (93) 
expansion

>  <fragmenstein_error>  (93) 


$$$$
C53461-P97
     RDKit          3D

 49 51  0  0  0  0  0  0  0  0999 V2000
   15.5039   -1.9448   12.7367 C   0  0  0  0  0  0  0  0  0  0  0  0
   16.8054   -1.2728   12.3115 C   0  0  0  0  0  0  0  0  0  0  0  0
   17.2854   -1.8769   10.9913 C   0  0  0  0  0  0  0  0  0  0  0  0
   17.9112   -1.3942   13.3770 C   0  0  0  0  0  0  0  0  0  0  0  0
   17.4768   -0.9347   14.7688 C   0  0  0  0  0  0  0  0  0  0  0  0
   18.6197   -1.0092   15.7836 C   0  0  0  0  0  0  0  0  0  0  0  0
   18.1032   -0.8053   17.2105 C   0  0  0  0  0  0  0  0  0  0  0  0
   17.0713   -0.2151   17.4152 O   0  0  0  0  0  0  0  0  0  0  0  0
   19.0465   -1.3737   18.1251 N   0  0  0  0  0  0  0  0  0  0  0  0
   19.1123   -1.3226   19.6209 C   0  0  0  0  0  0  0  0  0  0  0  0
   17.8581   -1.8447   20.3020 C   0  0  0  0  0  0  0  0  0  0  0  0
   17.4914   -2.9404   19.3603 C   0  0  0  0  0  0  0  0  0  0  0  0
   16.2669   -2.6672   18.6510 N   0  0  0  0  0  0  0  0  0  0  0  0
   15.4085   -3.5231   17.9041 C   0  0  0  0  0  0  0  0  0  0  0  0
   15.4393   -4.7037   17.7390 O   0  0  0  0  0  0  0  0  0  0  0  0
   14.4024   -2.7374   17.1724 C   0  0  0  0  0  0  0  0  0  0  0  0
   13.2199   -3.2124   16.5798 C   0  0  0  0  0  0  0  0  0  0  0  0
   12.6832   -2.1288   15.9011 C   0  0  0  0  0  0  0  0  0  0  0  0
   11.5765   -1.9426   15.0840 C   0  0  0  0  0  0  0  0  0  0  0  0
   11.5641   -0.6170   14.6532 C   0  0  0  0  0  0  0  0  0  0  0  0
   12.9107    0.3052   15.2676 S   0  0  0  0  0  0  0  0  0  0  0  0
   13.4459   -1.0463   16.0685 C   0  0  0  0  0  0  0  0  0  0  0  0
   14.5062   -1.3799   16.8342 N   0  0  0  0  0  0  0  0  0  0  0  0
   18.6914   -2.8313   18.4174 C   0  0  0  0  0  0  0  0  0  0  0  0
   15.0086   -1.3689   13.5210 H   0  0  0  0  0  0  0  0  0  0  0  0
   15.6937   -2.9472   13.1222 H   0  0  0  0  0  0  0  0  0  0  0  0
   14.8002   -2.0208   11.9010 H   0  0  0  0  0  0  0  0  0  0  0  0
   16.5996   -0.2083   12.1419 H   0  0  0  0  0  0  0  0  0  0  0  0
   18.2095   -1.3943   10.6560 H   0  0  0  0  0  0  0  0  0  0  0  0
   16.5354   -1.7403   10.2050 H   0  0  0  0  0  0  0  0  0  0  0  0
   17.4796   -2.9504   11.0903 H   0  0  0  0  0  0  0  0  0  0  0  0
   18.2458   -2.4381   13.4379 H   0  0  0  0  0  0  0  0  0  0  0  0
   18.7802   -0.8056   13.0563 H   0  0  0  0  0  0  0  0  0  0  0  0
   16.6653   -1.5800   15.1180 H   0  0  0  0  0  0  0  0  0  0  0  0
   17.0832    0.0878   14.7234 H   0  0  0  0  0  0  0  0  0  0  0  0
   19.3605   -0.2288   15.5760 H   0  0  0  0  0  0  0  0  0  0  0  0
   19.1221   -1.9794   15.7044 H   0  0  0  0  0  0  0  0  0  0  0  0
   19.2096   -0.2573   19.8689 H   0  0  0  0  0  0  0  0  0  0  0  0
   20.0430   -1.7828   19.9905 H   0  0  0  0  0  0  0  0  0  0  0  0
   18.0902   -2.2071   21.3084 H   0  0  0  0  0  0  0  0  0  0  0  0
   17.0905   -1.0678   20.3875 H   0  0  0  0  0  0  0  0  0  0  0  0
   17.4216   -3.9320   19.8162 H   0  0  0  0  0  0  0  0  0  0  0  0
   15.8905   -1.7287   18.6358 H   0  0  0  0  0  0  0  0  0  0  0  0
   12.8643   -4.2351   16.6326 H   0  0  0  0  0  0  0  0  0  0  0  0
   10.8423   -2.6812   14.7900 H   0  0  0  0  0  0  0  0  0  0  0  0
   10.8484   -0.1410   13.9960 H   0  0  0  0  0  0  0  0  0  0  0  0
   15.3007   -0.7758   17.0246 H   0  0  0  0  0  0  0  0  0  0  0  0
   19.5792   -3.3804   18.7747 H   0  0  0  0  0  0  0  0  0  0  0  0
   18.4429   -3.3062   17.4579 H   0  0  0  0  0  0  0  0  0  0  0  0
  1  2  1  0
  2  3  1  0
  2  4  1  0
  4  5  1  0
  5  6  1  0
  6  7  1  0
  7  8  2  0
  7  9  1  0
  9 10  1  0
 10 11  1  0
 11 12  1  0
 12 13  1  0
 13 14  1  0
 14 15  2  0
 14 16  1  0
 16 17  2  0
 17 18  1  0
 18 19  1  0
 19 20  2  0
 20 21  1  0
 21 22  1  0
 22 23  1  0
 12 24  1  0
 24  9  1  0
 23 16  1  0
 22 18  2  0
  1 25  1  0
  1 26  1  0
  1 27  1  0
  2 28  1  0
  3 29  1  0
  3 30  1  0
  3 31  1  0
  4 32  1  0
  4 33  1  0
  5 34  1  0
  5 35  1  0
  6 36  1  0
  6 37  1  0
 10 38  1  0
 10 39  1  0
 11 40  1  0
 11 41  1  0
 12 42  1  0
 13 43  1  0
 17 44  1  0
 19 45  1  0
 20 46  1  0
 23 47  1  0
 24 48  1  0
 24 49  1  0
M  END
>  <Energy>  (94) 
43.057740392240653

>  <compound_id>  (94) 
53461

>  <target_id>  (94) 
1

>  <reference_id>  (94) 
97

>  <inspiration_ids>  (94) 
[124, 97]

>  <energy_score>  (94) 
14.344704434497999

>  <distance_score>  (94) 
3.2737179026715153

>  <path>  (94) 
/opt/xchem-fragalysis-2/maxwin/BulkDock/SCRATCH/511024/C53461-P97/C53461-P97.minimised.mol

>  <scratch_subdir>  (94) 
/opt/xchem-fragalysis-2/maxwin/BulkDock/SCRATCH/511024/C53461-P97

>  <fragmenstein_runtime>  (94) 
8.333988904953003

>  <fragmenstein_outcome>  (94) 
too moved

>  <fragmenstein_mode>  (94) 
expansion

>  <fragmenstein_error>  (94) 


$$$$
C53465-P124
     RDKit          3D

 46 48  0  0  0  0  0  0  0  0999 V2000
   23.8617   -1.4603   18.0967 C   0  0  0  0  0  0  0  0  0  0  0  0
   23.4361   -2.1821   19.2596 N   0  0  0  0  0  0  0  0  0  0  0  0
   22.5923   -1.7637   20.4013 C   0  0  0  0  0  0  0  0  0  0  0  0
   22.1371   -0.7172   20.6598 O   0  0  0  0  0  0  0  0  0  0  0  0
   22.5099   -3.0474   21.1326 N   0  0  0  0  0  0  0  0  0  0  0  0
   21.7720   -3.4103   22.3192 C   0  0  0  0  0  0  0  0  0  0  0  0
   20.2645   -3.3448   22.1278 C   0  0  0  0  0  0  0  0  0  0  0  0
   19.7857   -4.4514   21.1988 C   0  0  0  0  0  0  0  0  0  0  0  0
   19.5045   -5.5332   21.6428 O   0  0  0  0  0  0  0  0  0  0  0  0
   19.8168   -3.9816   19.8537 N   0  0  0  0  0  0  0  0  0  0  0  0
   19.6184   -4.7066   18.5601 C   0  0  0  0  0  0  0  0  0  0  0  0
   19.4463   -3.7328   17.4156 C   0  0  0  0  0  0  0  0  0  0  0  0
   18.5415   -2.7518   18.0892 C   0  0  0  0  0  0  0  0  0  0  0  0
   17.2609   -2.6083   17.4470 N   0  0  0  0  0  0  0  0  0  0  0  0
   16.2944   -3.5813   17.0610 C   0  0  0  0  0  0  0  0  0  0  0  0
   16.2616   -4.7592   17.2405 O   0  0  0  0  0  0  0  0  0  0  0  0
   15.2063   -2.9474   16.3254 C   0  0  0  0  0  0  0  0  0  0  0  0
   13.8423   -3.2164   16.4383 C   0  0  0  0  0  0  0  0  0  0  0  0
   13.2511   -2.3867   15.4769 C   0  0  0  0  0  0  0  0  0  0  0  0
   12.0059   -2.0959   15.0311 O   0  0  0  0  0  0  0  0  0  0  0  0
   12.2101   -1.1744   14.0455 C   0  0  0  0  0  0  0  0  0  0  0  0
   13.5369   -0.8656   13.8518 C   0  0  0  0  0  0  0  0  0  0  0  0
   14.1776   -1.6726   14.8082 C   0  0  0  0  0  0  0  0  0  0  0  0
   15.3990   -2.0222   15.3066 N   0  0  0  0  0  0  0  0  0  0  0  0
   18.4781   -3.3949   19.4713 C   0  0  0  0  0  0  0  0  0  0  0  0
   24.9535   -1.4314   18.0859 H   0  0  0  0  0  0  0  0  0  0  0  0
   23.4990   -1.9857   17.2104 H   0  0  0  0  0  0  0  0  0  0  0  0
   23.4583   -0.4456   18.1234 H   0  0  0  0  0  0  0  0  0  0  0  0
   23.7193   -3.1329   19.3888 H   0  0  0  0  0  0  0  0  0  0  0  0
   22.9448   -3.7659   20.5891 H   0  0  0  0  0  0  0  0  0  0  0  0
   22.0641   -2.7026   23.1019 H   0  0  0  0  0  0  0  0  0  0  0  0
   22.0967   -4.4131   22.6149 H   0  0  0  0  0  0  0  0  0  0  0  0
   19.7578   -3.4799   23.0906 H   0  0  0  0  0  0  0  0  0  0  0  0
   19.9606   -2.3633   21.7480 H   0  0  0  0  0  0  0  0  0  0  0  0
   20.5453   -5.2751   18.4064 H   0  0  0  0  0  0  0  0  0  0  0  0
   18.8425   -5.4878   18.6296 H   0  0  0  0  0  0  0  0  0  0  0  0
   19.0477   -4.2120   16.5170 H   0  0  0  0  0  0  0  0  0  0  0  0
   20.4041   -3.2631   17.1631 H   0  0  0  0  0  0  0  0  0  0  0  0
   19.0058   -1.7603   18.1318 H   0  0  0  0  0  0  0  0  0  0  0  0
   16.9205   -1.6885   17.1972 H   0  0  0  0  0  0  0  0  0  0  0  0
   13.3645   -3.9157   17.1104 H   0  0  0  0  0  0  0  0  0  0  0  0
   11.3037   -0.8079   13.5854 H   0  0  0  0  0  0  0  0  0  0  0  0
   13.9497   -0.1681   13.1397 H   0  0  0  0  0  0  0  0  0  0  0  0
   16.2791   -1.6871   14.9342 H   0  0  0  0  0  0  0  0  0  0  0  0
   17.6554   -4.1172   19.6191 H   0  0  0  0  0  0  0  0  0  0  0  0
   18.2520   -2.6058   20.2027 H   0  0  0  0  0  0  0  0  0  0  0  0
  1  2  1  0
  2  3  1  0
  3  4  2  0
  3  5  1  0
  5  6  1  0
  6  7  1  0
  7  8  1  0
  8  9  2  0
  8 10  1  0
 10 11  1  0
 11 12  1  0
 12 13  1  0
 13 14  1  0
 14 15  1  0
 15 16  2  0
 15 17  1  0
 17 18  2  0
 18 19  1  0
 19 20  1  0
 20 21  1  0
 21 22  2  0
 22 23  1  0
 23 24  1  0
 13 25  1  0
 25 10  1  0
 24 17  1  0
 23 19  2  0
  1 26  1  0
  1 27  1  0
  1 28  1  0
  2 29  1  0
  5 30  1  0
  6 31  1  0
  6 32  1  0
  7 33  1  0
  7 34  1  0
 11 35  1  0
 11 36  1  0
 12 37  1  0
 12 38  1  0
 13 39  1  0
 14 40  1  0
 18 41  1  0
 21 42  1  0
 22 43  1  0
 24 44  1  0
 25 45  1  0
 25 46  1  0
M  END
>  <Energy>  (95) 
-29.367945527197023

>  <compound_id>  (95) 
53465

>  <target_id>  (95) 
1

>  <reference_id>  (95) 
124

>  <inspiration_ids>  (95) 
[124, 97]

>  <energy_score>  (95) 
43.014511790674916

>  <distance_score>  (95) 
5.706307164181602

>  <path>  (95) 
/opt/xchem-fragalysis-2/maxwin/BulkDock/SCRATCH/511024/C53465-P124/C53465-P124.minimised.mol

>  <scratch_subdir>  (95) 
/opt/xchem-fragalysis-2/maxwin/BulkDock/SCRATCH/511024/C53465-P124

>  <fragmenstein_runtime>  (95) 
9.032061100006104

>  <fragmenstein_outcome>  (95) 
too moved

>  <fragmenstein_mode>  (95) 
expansion

>  <fragmenstein_error>  (95) 


$$$$
C53465-P97
     RDKit          3D

 46 48  0  0  0  0  0  0  0  0999 V2000
   18.6162   -7.8469   10.1970 C   0  0  0  0  0  0  0  0  0  0  0  0
   18.7169   -6.5614    9.5746 N   0  0  0  0  0  0  0  0  0  0  0  0
   19.8628   -5.6337    9.4548 C   0  0  0  0  0  0  0  0  0  0  0  0
   20.9384   -5.7005    9.9102 O   0  0  0  0  0  0  0  0  0  0  0  0
   19.2620   -4.6089    8.5752 N   0  0  0  0  0  0  0  0  0  0  0  0
   19.8436   -3.4506    7.9468 C   0  0  0  0  0  0  0  0  0  0  0  0
   19.6304   -2.1882    8.7649 C   0  0  0  0  0  0  0  0  0  0  0  0
   18.2335   -1.5902    8.5907 C   0  0  0  0  0  0  0  0  0  0  0  0
   17.4748   -1.9730    7.7356 O   0  0  0  0  0  0  0  0  0  0  0  0
   18.1128   -0.5132    9.5273 N   0  0  0  0  0  0  0  0  0  0  0  0
   17.0615    0.5467    9.6721 C   0  0  0  0  0  0  0  0  0  0  0  0
   15.6657   -0.0194    9.8053 C   0  0  0  0  0  0  0  0  0  0  0  0
   15.9671   -1.2023   10.6557 C   0  0  0  0  0  0  0  0  0  0  0  0
   15.2243   -1.2408   11.8814 N   0  0  0  0  0  0  0  0  0  0  0  0
   15.1899   -0.3390   12.9812 C   0  0  0  0  0  0  0  0  0  0  0  0
   15.7109    0.7227   13.1347 O   0  0  0  0  0  0  0  0  0  0  0  0
   14.4379   -0.9473   14.0628 C   0  0  0  0  0  0  0  0  0  0  0  0
   13.1667   -1.5196   14.0461 C   0  0  0  0  0  0  0  0  0  0  0  0
   13.0970   -2.1950   15.2691 C   0  0  0  0  0  0  0  0  0  0  0  0
   12.2699   -3.0774   15.8765 O   0  0  0  0  0  0  0  0  0  0  0  0
   12.9686   -3.4815   16.9756 C   0  0  0  0  0  0  0  0  0  0  0  0
   14.1513   -2.7992   17.1519 C   0  0  0  0  0  0  0  0  0  0  0  0
   14.2091   -1.9938   16.0028 C   0  0  0  0  0  0  0  0  0  0  0  0
   14.9907   -1.1058   15.3231 N   0  0  0  0  0  0  0  0  0  0  0  0
   17.4750   -1.0038   10.8159 C   0  0  0  0  0  0  0  0  0  0  0  0
   19.4348   -7.9756   10.9086 H   0  0  0  0  0  0  0  0  0  0  0  0
   17.6534   -7.9174   10.7031 H   0  0  0  0  0  0  0  0  0  0  0  0
   18.6809   -8.6122    9.4203 H   0  0  0  0  0  0  0  0  0  0  0  0
   17.9633   -6.2384    8.9844 H   0  0  0  0  0  0  0  0  0  0  0  0
   18.2832   -4.8194    8.4376 H   0  0  0  0  0  0  0  0  0  0  0  0
   19.4273   -3.3718    6.9380 H   0  0  0  0  0  0  0  0  0  0  0  0
   20.9185   -3.6422    7.8596 H   0  0  0  0  0  0  0  0  0  0  0  0
   19.8306   -2.3813    9.8245 H   0  0  0  0  0  0  0  0  0  0  0  0
   20.3397   -1.4250    8.4206 H   0  0  0  0  0  0  0  0  0  0  0  0
   17.1039    1.1214    8.7373 H   0  0  0  0  0  0  0  0  0  0  0  0
   17.3301    1.2699   10.4594 H   0  0  0  0  0  0  0  0  0  0  0  0
   15.2869   -0.3337    8.8264 H   0  0  0  0  0  0  0  0  0  0  0  0
   14.9665    0.7072   10.2293 H   0  0  0  0  0  0  0  0  0  0  0  0
   15.7477   -2.1311   10.1235 H   0  0  0  0  0  0  0  0  0  0  0  0
   14.7281   -2.0907   12.1350 H   0  0  0  0  0  0  0  0  0  0  0  0
   12.4460   -1.5333   13.2428 H   0  0  0  0  0  0  0  0  0  0  0  0
   12.4884   -4.2619   17.5501 H   0  0  0  0  0  0  0  0  0  0  0  0
   14.8623   -2.9188   17.9551 H   0  0  0  0  0  0  0  0  0  0  0  0
   15.8869   -0.7596   15.6443 H   0  0  0  0  0  0  0  0  0  0  0  0
   17.9177   -1.9800   11.0593 H   0  0  0  0  0  0  0  0  0  0  0  0
   17.7711   -0.3598   11.6607 H   0  0  0  0  0  0  0  0  0  0  0  0
  1  2  1  0
  2  3  1  0
  3  4  2  0
  3  5  1  0
  5  6  1  0
  6  7  1  0
  7  8  1  0
  8  9  2  0
  8 10  1  0
 10 11  1  0
 11 12  1  0
 12 13  1  0
 13 14  1  0
 14 15  1  0
 15 16  2  0
 15 17  1  0
 17 18  2  0
 18 19  1  0
 19 20  1  0
 20 21  1  0
 21 22  2  0
 22 23  1  0
 23 24  1  0
 13 25  1  0
 25 10  1  0
 24 17  1  0
 23 19  2  0
  1 26  1  0
  1 27  1  0
  1 28  1  0
  2 29  1  0
  5 30  1  0
  6 31  1  0
  6 32  1  0
  7 33  1  0
  7 34  1  0
 11 35  1  0
 11 36  1  0
 12 37  1  0
 12 38  1  0
 13 39  1  0
 14 40  1  0
 18 41  1  0
 21 42  1  0
 22 43  1  0
 24 44  1  0
 25 45  1  0
 25 46  1  0
M  END
>  <Energy>  (96) 
-30.394654854115796

>  <compound_id>  (96) 
53465

>  <target_id>  (96) 
1

>  <reference_id>  (96) 
97

>  <inspiration_ids>  (96) 
[124, 97]

>  <energy_score>  (96) 
41.987802463756196

>  <distance_score>  (96) 
6.50245322803869

>  <path>  (96) 
/opt/xchem-fragalysis-2/maxwin/BulkDock/SCRATCH/511024/C53465-P97/C53465-P97.minimised.mol

>  <scratch_subdir>  (96) 
/opt/xchem-fragalysis-2/maxwin/BulkDock/SCRATCH/511024/C53465-P97

>  <fragmenstein_runtime>  (96) 
9.332339525222778

>  <fragmenstein_outcome>  (96) 
too moved

>  <fragmenstein_mode>  (96) 
expansion

>  <fragmenstein_error>  (96) 


$$$$
C53466-P124
     RDKit          3D

 50 52  0  0  0  0  0  0  0  0999 V2000
   23.4170  -11.8455   17.8441 C   0  0  0  0  0  0  0  0  0  0  0  0
   23.0877  -10.6219   18.5147 N   0  0  0  0  0  0  0  0  0  0  0  0
   23.7002   -9.2770   18.4271 C   0  0  0  0  0  0  0  0  0  0  0  0
   24.6490   -8.9164   17.8451 O   0  0  0  0  0  0  0  0  0  0  0  0
   22.7956   -8.5335   19.3304 N   0  0  0  0  0  0  0  0  0  0  0  0
   22.7573   -7.1367   19.6834 C   0  0  0  0  0  0  0  0  0  0  0  0
   21.9169   -6.3232   18.7087 C   0  0  0  0  0  0  0  0  0  0  0  0
   20.4311   -6.6780   18.7878 C   0  0  0  0  0  0  0  0  0  0  0  0
   20.0400   -7.5961   19.4602 O   0  0  0  0  0  0  0  0  0  0  0  0
   19.7089   -5.7310   18.0009 N   0  0  0  0  0  0  0  0  0  0  0  0
   19.5530   -6.2342   16.5879 C   0  0  0  0  0  0  0  0  0  0  0  0
   18.9360   -5.1778   15.6976 C   0  0  0  0  0  0  0  0  0  0  0  0
   17.8721   -4.6647   16.6219 C   0  0  0  0  0  0  0  0  0  0  0  0
   17.9838   -3.2091   16.7627 N   0  0  0  0  0  0  0  0  0  0  0  0
   16.9569   -2.6022   17.6136 C   0  0  0  0  0  0  0  0  0  0  0  0
   15.5737   -2.6343   17.0011 C   0  0  0  0  0  0  0  0  0  0  0  0
   14.6024   -3.5101   17.4983 C   0  0  0  0  0  0  0  0  0  0  0  0
   13.3359   -3.5961   16.9101 C   0  0  0  0  0  0  0  0  0  0  0  0
   13.0233   -2.7569   15.8270 C   0  0  0  0  0  0  0  0  0  0  0  0
   11.8634   -2.5589   15.0345 C   0  0  0  0  0  0  0  0  0  0  0  0
   12.1330   -1.5364   14.1576 C   0  0  0  0  0  0  0  0  0  0  0  0
   13.4289   -1.1468   14.3375 N   0  0  0  0  0  0  0  0  0  0  0  0
   13.9931   -1.8693   15.3619 C   0  0  0  0  0  0  0  0  0  0  0  0
   15.2728   -1.7941   15.9157 C   0  0  0  0  0  0  0  0  0  0  0  0
   18.2344   -5.5072   17.8472 C   0  0  0  0  0  0  0  0  0  0  0  0
   22.6639  -12.0315   17.0750 H   0  0  0  0  0  0  0  0  0  0  0  0
   23.4077  -12.6578   18.5738 H   0  0  0  0  0  0  0  0  0  0  0  0
   24.4029  -11.7580   17.3823 H   0  0  0  0  0  0  0  0  0  0  0  0
   22.2336  -10.5631   19.0334 H   0  0  0  0  0  0  0  0  0  0  0  0
   22.0312   -9.1259   19.5952 H   0  0  0  0  0  0  0  0  0  0  0  0
   22.3707   -7.0636   20.7048 H   0  0  0  0  0  0  0  0  0  0  0  0
   23.7876   -6.7665   19.6702 H   0  0  0  0  0  0  0  0  0  0  0  0
   22.2704   -6.4881   17.6853 H   0  0  0  0  0  0  0  0  0  0  0  0
   22.0286   -5.2587   18.9466 H   0  0  0  0  0  0  0  0  0  0  0  0
   19.0439   -7.2137   16.5473 H   0  0  0  0  0  0  0  0  0  0  0  0
   20.5604   -6.4514   16.2081 H   0  0  0  0  0  0  0  0  0  0  0  0
   18.5371   -5.5966   14.7686 H   0  0  0  0  0  0  0  0  0  0  0  0
   19.6816   -4.4175   15.4350 H   0  0  0  0  0  0  0  0  0  0  0  0
   16.8810   -4.9391   16.2466 H   0  0  0  0  0  0  0  0  0  0  0  0
   17.9321   -2.7797   15.8394 H   0  0  0  0  0  0  0  0  0  0  0  0
   16.9500   -3.0496   18.6135 H   0  0  0  0  0  0  0  0  0  0  0  0
   17.2289   -1.5518   17.7784 H   0  0  0  0  0  0  0  0  0  0  0  0
   14.8296   -4.1421   18.3537 H   0  0  0  0  0  0  0  0  0  0  0  0
   12.5951   -4.2897   17.2954 H   0  0  0  0  0  0  0  0  0  0  0  0
   10.9218   -3.0855   15.1128 H   0  0  0  0  0  0  0  0  0  0  0  0
   11.5087   -1.0424   13.4295 H   0  0  0  0  0  0  0  0  0  0  0  0
   13.8906   -0.4075   13.8256 H   0  0  0  0  0  0  0  0  0  0  0  0
   16.0105   -1.0996   15.5250 H   0  0  0  0  0  0  0  0  0  0  0  0
   17.6773   -6.4593   17.9004 H   0  0  0  0  0  0  0  0  0  0  0  0
   17.9312   -5.0020   18.7725 H   0  0  0  0  0  0  0  0  0  0  0  0
  1  2  1  0
  2  3  1  0
  3  4  2  0
  3  5  1  0
  5  6  1  0
  6  7  1  0
  7  8  1  0
  8  9  2  0
  8 10  1  0
 10 11  1  0
 11 12  1  0
 12 13  1  0
 13 14  1  0
 14 15  1  0
 15 16  1  0
 16 17  2  0
 17 18  1  0
 18 19  2  0
 19 20  1  0
 20 21  2  0
 21 22  1  0
 22 23  1  0
 23 24  2  0
 13 25  1  0
 25 10  1  0
 24 16  1  0
 23 19  1  0
  1 26  1  0
  1 27  1  0
  1 28  1  0
  2 29  1  0
  5 30  1  0
  6 31  1  0
  6 32  1  0
  7 33  1  0
  7 34  1  0
 11 35  1  0
 11 36  1  0
 12 37  1  0
 12 38  1  0
 13 39  1  0
 14 40  1  0
 15 41  1  0
 15 42  1  0
 17 43  1  0
 18 44  1  0
 20 45  1  0
 21 46  1  0
 22 47  1  0
 24 48  1  0
 25 49  1  0
 25 50  1  0
M  END
>  <Energy>  (97) 
7.6648514084072632

>  <compound_id>  (97) 
53466

>  <target_id>  (97) 
1

>  <reference_id>  (97) 
124

>  <inspiration_ids>  (97) 
[124, 97]

>  <energy_score>  (97) 
49.942939822940666

>  <distance_score>  (97) 
7.35123733853674

>  <path>  (97) 
/opt/xchem-fragalysis-2/maxwin/BulkDock/SCRATCH/511024/C53466-P124/C53466-P124.minimised.mol

>  <scratch_subdir>  (97) 
/opt/xchem-fragalysis-2/maxwin/BulkDock/SCRATCH/511024/C53466-P124

>  <fragmenstein_runtime>  (97) 
17.808088541030884

>  <fragmenstein_outcome>  (97) 
too moved

>  <fragmenstein_mode>  (97) 
expansion

>  <fragmenstein_error>  (97) 


$$$$
C53466-P97
     RDKit          3D

 50 52  0  0  0  0  0  0  0  0999 V2000
   14.8524    3.8024   23.2229 C   0  0  0  0  0  0  0  0  0  0  0  0
   14.9437    2.4110   23.5578 N   0  0  0  0  0  0  0  0  0  0  0  0
   14.4236    1.2134   22.8608 C   0  0  0  0  0  0  0  0  0  0  0  0
   13.8804    1.1170   21.8283 O   0  0  0  0  0  0  0  0  0  0  0  0
   14.8178    0.1678   23.8358 N   0  0  0  0  0  0  0  0  0  0  0  0
   14.5657   -1.2581   23.8463 C   0  0  0  0  0  0  0  0  0  0  0  0
   15.2699   -1.9701   22.7020 C   0  0  0  0  0  0  0  0  0  0  0  0
   15.0561   -3.4804   22.7640 C   0  0  0  0  0  0  0  0  0  0  0  0
   14.7726   -4.0352   23.7926 O   0  0  0  0  0  0  0  0  0  0  0  0
   15.2329   -4.0020   21.4469 N   0  0  0  0  0  0  0  0  0  0  0  0
   16.6765   -4.3841   21.2228 C   0  0  0  0  0  0  0  0  0  0  0  0
   16.9243   -4.7996   19.7841 C   0  0  0  0  0  0  0  0  0  0  0  0
   15.6490   -5.5448   19.5169 C   0  0  0  0  0  0  0  0  0  0  0  0
   14.9087   -5.0420   18.3428 N   0  0  0  0  0  0  0  0  0  0  0  0
   14.2299   -3.7652   18.5783 C   0  0  0  0  0  0  0  0  0  0  0  0
   13.7587   -3.1012   17.3031 C   0  0  0  0  0  0  0  0  0  0  0  0
   12.6668   -3.6088   16.5948 C   0  0  0  0  0  0  0  0  0  0  0  0
   12.1127   -2.9048   15.5177 C   0  0  0  0  0  0  0  0  0  0  0  0
   12.6828   -1.6801   15.1268 C   0  0  0  0  0  0  0  0  0  0  0  0
   12.3712   -0.7104   14.1379 C   0  0  0  0  0  0  0  0  0  0  0  0
   13.3057    0.2954   14.2152 C   0  0  0  0  0  0  0  0  0  0  0  0
   14.1733   -0.0261   15.2227 N   0  0  0  0  0  0  0  0  0  0  0  0
   13.8045   -1.2165   15.8067 C   0  0  0  0  0  0  0  0  0  0  0  0
   14.3659   -1.9029   16.8873 C   0  0  0  0  0  0  0  0  0  0  0  0
   15.0152   -5.3824   20.9020 C   0  0  0  0  0  0  0  0  0  0  0  0
   14.5243    3.9103   22.1867 H   0  0  0  0  0  0  0  0  0  0  0  0
   14.1268    4.2719   23.8910 H   0  0  0  0  0  0  0  0  0  0  0  0
   15.8336    4.2609   23.3626 H   0  0  0  0  0  0  0  0  0  0  0  0
   15.2779    2.1473   24.4629 H   0  0  0  0  0  0  0  0  0  0  0  0
   15.3393    0.5878   24.5782 H   0  0  0  0  0  0  0  0  0  0  0  0
   13.4832   -1.4024   23.7835 H   0  0  0  0  0  0  0  0  0  0  0  0
   14.9019   -1.6361   24.8175 H   0  0  0  0  0  0  0  0  0  0  0  0
   14.9075   -1.5836   21.7418 H   0  0  0  0  0  0  0  0  0  0  0  0
   16.3475   -1.7753   22.7521 H   0  0  0  0  0  0  0  0  0  0  0  0
   17.0352   -5.1132   21.9707 H   0  0  0  0  0  0  0  0  0  0  0  0
   17.2797   -3.4884   21.4252 H   0  0  0  0  0  0  0  0  0  0  0  0
   17.8170   -5.4254   19.6876 H   0  0  0  0  0  0  0  0  0  0  0  0
   17.0593   -3.9233   19.1403 H   0  0  0  0  0  0  0  0  0  0  0  0
   15.8519   -6.6060   19.3353 H   0  0  0  0  0  0  0  0  0  0  0  0
   15.5562   -4.9179   17.5625 H   0  0  0  0  0  0  0  0  0  0  0  0
   13.3569   -3.9144   19.2234 H   0  0  0  0  0  0  0  0  0  0  0  0
   14.8899   -3.0552   19.0878 H   0  0  0  0  0  0  0  0  0  0  0  0
   12.2083   -4.5453   16.9053 H   0  0  0  0  0  0  0  0  0  0  0  0
   11.2465   -3.2984   14.9925 H   0  0  0  0  0  0  0  0  0  0  0  0
   11.5433   -0.7461   13.4457 H   0  0  0  0  0  0  0  0  0  0  0  0
   13.4258    1.2054   13.6435 H   0  0  0  0  0  0  0  0  0  0  0  0
   14.9648    0.5315   15.5116 H   0  0  0  0  0  0  0  0  0  0  0  0
   15.2185   -1.4930   17.4206 H   0  0  0  0  0  0  0  0  0  0  0  0
   15.3048   -6.1646   21.6255 H   0  0  0  0  0  0  0  0  0  0  0  0
   13.9254   -5.5034   20.8370 H   0  0  0  0  0  0  0  0  0  0  0  0
  1  2  1  0
  2  3  1  0
  3  4  2  0
  3  5  1  0
  5  6  1  0
  6  7  1  0
  7  8  1  0
  8  9  2  0
  8 10  1  0
 10 11  1  0
 11 12  1  0
 12 13  1  0
 13 14  1  0
 14 15  1  0
 15 16  1  0
 16 17  2  0
 17 18  1  0
 18 19  2  0
 19 20  1  0
 20 21  2  0
 21 22  1  0
 22 23  1  0
 23 24  2  0
 13 25  1  0
 25 10  1  0
 24 16  1  0
 23 19  1  0
  1 26  1  0
  1 27  1  0
  1 28  1  0
  2 29  1  0
  5 30  1  0
  6 31  1  0
  6 32  1  0
  7 33  1  0
  7 34  1  0
 11 35  1  0
 11 36  1  0
 12 37  1  0
 12 38  1  0
 13 39  1  0
 14 40  1  0
 15 41  1  0
 15 42  1  0
 17 43  1  0
 18 44  1  0
 20 45  1  0
 21 46  1  0
 22 47  1  0
 24 48  1  0
 25 49  1  0
 25 50  1  0
M  END
>  <Energy>  (98) 
11.060381108960472

>  <compound_id>  (98) 
53466

>  <target_id>  (98) 
1

>  <reference_id>  (98) 
97

>  <inspiration_ids>  (98) 
[124, 97]

>  <energy_score>  (98) 
53.33846952349221

>  <distance_score>  (98) 
5.685015984595125

>  <path>  (98) 
/opt/xchem-fragalysis-2/maxwin/BulkDock/SCRATCH/511024/C53466-P97/C53466-P97.minimised.mol

>  <scratch_subdir>  (98) 
/opt/xchem-fragalysis-2/maxwin/BulkDock/SCRATCH/511024/C53466-P97

>  <fragmenstein_runtime>  (98) 
13.582164287567139

>  <fragmenstein_outcome>  (98) 
too moved

>  <fragmenstein_mode>  (98) 
expansion

>  <fragmenstein_error>  (98) 


$$$$
C24750-P124
     RDKit          3D

 46 49  0  0  0  0  0  0  0  0999 V2000
   15.5689    1.2308   14.9826 O   0  0  0  0  0  0  0  0  0  0  0  0
   15.7894    0.5145   15.8440 C   0  0  0  0  0  0  0  0  0  0  0  0
   15.1506   -0.8318   16.2037 N   0  0  0  0  0  0  0  0  0  0  0  0
   14.0844   -1.4989   15.6323 C   0  0  0  0  0  0  0  0  0  0  0  0
   13.3823   -1.0320   14.5256 C   0  0  0  0  0  0  0  0  0  0  0  0
   12.1947   -1.6544   14.1503 C   0  0  0  0  0  0  0  0  0  0  0  0
   11.6969   -2.7635   14.8347 C   0  0  0  0  0  0  0  0  0  0  0  0
   12.4448   -3.2318   15.9122 C   0  0  0  0  0  0  0  0  0  0  0  0
   12.2022   -4.2581   16.7816 N   0  0  0  0  0  0  0  0  0  0  0  0
   13.0839   -4.1961   17.8270 C   0  0  0  0  0  0  0  0  0  0  0  0
   14.0657   -3.3070   17.5006 C   0  0  0  0  0  0  0  0  0  0  0  0
   13.6360   -2.6436   16.3184 C   0  0  0  0  0  0  0  0  0  0  0  0
   16.8066    0.6217   16.9832 N   0  0  0  0  0  0  0  0  0  0  0  0
   17.7274    1.7323   17.3531 C   0  0  0  0  0  0  0  0  0  0  0  0
   18.5407    2.1870   16.1695 C   0  0  0  0  0  0  0  0  0  0  0  0
   18.8408    0.8643   15.5383 C   0  0  0  0  0  0  0  0  0  0  0  0
   18.1872   -0.0317   16.5796 C   0  0  0  0  0  0  0  0  0  0  0  0
   18.0275   -1.5381   16.1374 C   0  0  0  0  0  0  0  0  0  0  0  0
   19.0718   -2.0954   15.1728 C   0  0  0  0  0  0  0  0  0  0  0  0
   18.6490   -3.4998   14.7191 C   0  0  0  0  0  0  0  0  0  0  0  0
   17.8940   -4.2153   15.6998 O   0  0  0  0  0  0  0  0  0  0  0  0
   18.2943   -3.9239   17.0290 C   0  0  0  0  0  0  0  0  0  0  0  0
   17.9927   -2.4662   17.3747 C   0  0  0  0  0  0  0  0  0  0  0  0
   15.5280   -1.1616   17.0769 H   0  0  0  0  0  0  0  0  0  0  0  0
   13.7018   -0.1386   13.9965 H   0  0  0  0  0  0  0  0  0  0  0  0
   11.6163   -1.2299   13.3376 H   0  0  0  0  0  0  0  0  0  0  0  0
   10.7562   -3.2155   14.5471 H   0  0  0  0  0  0  0  0  0  0  0  0
   11.3818   -4.8469   16.7363 H   0  0  0  0  0  0  0  0  0  0  0  0
   12.9286   -4.7717   18.7278 H   0  0  0  0  0  0  0  0  0  0  0  0
   14.9103   -3.0628   18.1259 H   0  0  0  0  0  0  0  0  0  0  0  0
   18.2909    1.5379   18.2799 H   0  0  0  0  0  0  0  0  0  0  0  0
   17.0619    2.5633   17.6248 H   0  0  0  0  0  0  0  0  0  0  0  0
   17.9632    2.8233   15.4903 H   0  0  0  0  0  0  0  0  0  0  0  0
   19.4371    2.7342   16.4754 H   0  0  0  0  0  0  0  0  0  0  0  0
   18.3704    0.7808   14.5531 H   0  0  0  0  0  0  0  0  0  0  0  0
   19.9141    0.6792   15.4367 H   0  0  0  0  0  0  0  0  0  0  0  0
   18.8471   -0.1102   17.4636 H   0  0  0  0  0  0  0  0  0  0  0  0
   17.1053   -1.6631   15.5759 H   0  0  0  0  0  0  0  0  0  0  0  0
   20.0476   -2.1437   15.6726 H   0  0  0  0  0  0  0  0  0  0  0  0
   19.2032   -1.4672   14.2860 H   0  0  0  0  0  0  0  0  0  0  0  0
   18.0208   -3.4299   13.8246 H   0  0  0  0  0  0  0  0  0  0  0  0
   19.5304   -4.0920   14.4500 H   0  0  0  0  0  0  0  0  0  0  0  0
   17.7540   -4.5900   17.7095 H   0  0  0  0  0  0  0  0  0  0  0  0
   19.3628   -4.1442   17.1423 H   0  0  0  0  0  0  0  0  0  0  0  0
   18.7125   -2.1496   18.1391 H   0  0  0  0  0  0  0  0  0  0  0  0
   17.0131   -2.3984   17.8518 H   0  0  0  0  0  0  0  0  0  0  0  0
  1  2  2  0
  2  3  1  0
  3  4  1  0
  4  5  2  0
  5  6  1  0
  6  7  2  0
  7  8  1  0
  8  9  1  0
  9 10  1  0
 10 11  2  0
 11 12  1  0
  2 13  1  0
 13 14  1  0
 14 15  1  0
 15 16  1  0
 16 17  1  0
 17 18  1  0
 18 19  1  0
 19 20  1  0
 20 21  1  0
 21 22  1  0
 22 23  1  0
 12  4  1  0
 17 13  1  0
 23 18  1  0
 12  8  2  0
  3 24  1  0
  5 25  1  0
  6 26  1  0
  7 27  1  0
  9 28  1  0
 10 29  1  0
 11 30  1  0
 14 31  1  0
 14 32  1  0
 15 33  1  0
 15 34  1  0
 16 35  1  0
 16 36  1  0
 17 37  1  0
 18 38  1  0
 19 39  1  0
 19 40  1  0
 20 41  1  0
 20 42  1  0
 22 43  1  0
 22 44  1  0
 23 45  1  0
 23 46  1  0
M  END
>  <Energy>  (99) 
77.422114547515619

>  <compound_id>  (99) 
24750

>  <target_id>  (99) 
1

>  <reference_id>  (99) 
124

>  <inspiration_ids>  (99) 
[124, 97]

>  <energy_score>  (99) 
33.97824115376946

>  <distance_score>  (99) 
2.3068159625260174

>  <path>  (99) 
/opt/xchem-fragalysis-2/maxwin/BulkDock/SCRATCH/511024/C24750-P124/C24750-P124.minimised.mol

>  <scratch_subdir>  (99) 
/opt/xchem-fragalysis-2/maxwin/BulkDock/SCRATCH/511024/C24750-P124

>  <fragmenstein_runtime>  (99) 
11.247706413269043

>  <fragmenstein_outcome>  (99) 
too moved

>  <fragmenstein_mode>  (99) 
expansion

>  <fragmenstein_error>  (99) 


$$$$
C24750-P97
     RDKit          3D

 46 49  0  0  0  0  0  0  0  0999 V2000
   14.8766    1.7288   15.8985 O   0  0  0  0  0  0  0  0  0  0  0  0
   15.2581    0.9139   16.6014 C   0  0  0  0  0  0  0  0  0  0  0  0
   14.7051   -0.4861   16.8904 N   0  0  0  0  0  0  0  0  0  0  0  0
   13.6535   -1.1706   16.3132 C   0  0  0  0  0  0  0  0  0  0  0  0
   12.8904   -0.6675   15.2627 C   0  0  0  0  0  0  0  0  0  0  0  0
   11.8920   -1.4507   14.6916 C   0  0  0  0  0  0  0  0  0  0  0  0
   11.6365   -2.7495   15.1398 C   0  0  0  0  0  0  0  0  0  0  0  0
   12.4250   -3.2336   16.1860 C   0  0  0  0  0  0  0  0  0  0  0  0
   12.4001   -4.4350   16.8491 N   0  0  0  0  0  0  0  0  0  0  0  0
   13.3020   -4.4287   17.8782 C   0  0  0  0  0  0  0  0  0  0  0  0
   13.9975   -3.2565   17.8234 C   0  0  0  0  0  0  0  0  0  0  0  0
   13.4275   -2.4772   16.7795 C   0  0  0  0  0  0  0  0  0  0  0  0
   16.4995    0.8809   17.4933 N   0  0  0  0  0  0  0  0  0  0  0  0
   17.5106    1.9361   17.7790 C   0  0  0  0  0  0  0  0  0  0  0  0
   18.0499    2.5378   16.5084 C   0  0  0  0  0  0  0  0  0  0  0  0
   18.2066    1.3001   15.6895 C   0  0  0  0  0  0  0  0  0  0  0  0
   17.7469    0.2731   16.7195 C   0  0  0  0  0  0  0  0  0  0  0  0
   17.4633   -1.1429   16.0704 C   0  0  0  0  0  0  0  0  0  0  0  0
   18.4791   -1.5573   14.9906 C   0  0  0  0  0  0  0  0  0  0  0  0
   18.4240   -3.0620   14.7719 C   0  0  0  0  0  0  0  0  0  0  0  0
   18.8782   -3.7744   15.9249 O   0  0  0  0  0  0  0  0  0  0  0  0
   18.6327   -3.1211   17.1702 C   0  0  0  0  0  0  0  0  0  0  0  0
   17.3807   -2.2540   17.1416 C   0  0  0  0  0  0  0  0  0  0  0  0
   15.2413   -0.9153   17.6280 H   0  0  0  0  0  0  0  0  0  0  0  0
   13.0658    0.3323   14.8761 H   0  0  0  0  0  0  0  0  0  0  0  0
   11.3046   -1.0341   13.8785 H   0  0  0  0  0  0  0  0  0  0  0  0
   10.8525   -3.3460   14.6885 H   0  0  0  0  0  0  0  0  0  0  0  0
   11.7210   -5.1599   16.6639 H   0  0  0  0  0  0  0  0  0  0  0  0
   13.3440   -5.2124   18.6159 H   0  0  0  0  0  0  0  0  0  0  0  0
   14.7600   -2.9571   18.5285 H   0  0  0  0  0  0  0  0  0  0  0  0
   18.2636    1.6248   18.5207 H   0  0  0  0  0  0  0  0  0  0  0  0
   16.9472    2.7253   18.2955 H   0  0  0  0  0  0  0  0  0  0  0  0
   17.3386    3.2294   16.0445 H   0  0  0  0  0  0  0  0  0  0  0  0
   18.9906    3.0706   16.6742 H   0  0  0  0  0  0  0  0  0  0  0  0
   17.5606    1.3261   14.8055 H   0  0  0  0  0  0  0  0  0  0  0  0
   19.2396    1.1422   15.3664 H   0  0  0  0  0  0  0  0  0  0  0  0
   18.5584    0.0486   17.4373 H   0  0  0  0  0  0  0  0  0  0  0  0
   16.5114   -1.1045   15.5360 H   0  0  0  0  0  0  0  0  0  0  0  0
   19.4928   -1.2738   15.2996 H   0  0  0  0  0  0  0  0  0  0  0  0
   18.2615   -1.0362   14.0516 H   0  0  0  0  0  0  0  0  0  0  0  0
   17.4076   -3.3944   14.5313 H   0  0  0  0  0  0  0  0  0  0  0  0
   19.0686   -3.3493   13.9353 H   0  0  0  0  0  0  0  0  0  0  0  0
   18.5360   -3.8989   17.9346 H   0  0  0  0  0  0  0  0  0  0  0  0
   19.5145   -2.5235   17.4283 H   0  0  0  0  0  0  0  0  0  0  0  0
   17.1811   -1.8471   18.1380 H   0  0  0  0  0  0  0  0  0  0  0  0
   16.5436   -2.9079   16.8774 H   0  0  0  0  0  0  0  0  0  0  0  0
  1  2  2  0
  2  3  1  0
  3  4  1  0
  4  5  2  0
  5  6  1  0
  6  7  2  0
  7  8  1  0
  8  9  1  0
  9 10  1  0
 10 11  2  0
 11 12  1  0
  2 13  1  0
 13 14  1  0
 14 15  1  0
 15 16  1  0
 16 17  1  0
 17 18  1  0
 18 19  1  0
 19 20  1  0
 20 21  1  0
 21 22  1  0
 22 23  1  0
 12  4  1  0
 17 13  1  0
 23 18  1  0
 12  8  2  0
  3 24  1  0
  5 25  1  0
  6 26  1  0
  7 27  1  0
  9 28  1  0
 10 29  1  0
 11 30  1  0
 14 31  1  0
 14 32  1  0
 15 33  1  0
 15 34  1  0
 16 35  1  0
 16 36  1  0
 17 37  1  0
 18 38  1  0
 19 39  1  0
 19 40  1  0
 20 41  1  0
 20 42  1  0
 22 43  1  0
 22 44  1  0
 23 45  1  0
 23 46  1  0
M  END
>  <Energy>  (100) 
72.03735042382992

>  <compound_id>  (100) 
24750

>  <target_id>  (100) 
1

>  <reference_id>  (100) 
97

>  <inspiration_ids>  (100) 
[124, 97]

>  <energy_score>  (100) 
28.593477030079157

>  <distance_score>  (100) 
2.1401224823520484

>  <path>  (100) 
/opt/xchem-fragalysis-2/maxwin/BulkDock/SCRATCH/511024/C24750-P97/C24750-P97.minimised.mol

>  <scratch_subdir>  (100) 
/opt/xchem-fragalysis-2/maxwin/BulkDock/SCRATCH/511024/C24750-P97

>  <fragmenstein_runtime>  (100) 
8.83898663520813

>  <fragmenstein_outcome>  (100) 
too moved

>  <fragmenstein_mode>  (100) 
expansion

>  <fragmenstein_error>  (100) 


$$$$
C77248-P124
     RDKit          3D

 45 48  0  0  0  0  0  0  0  0999 V2000
   11.5385   -0.7788   13.8002 C   0  0  0  0  0  0  0  0  0  0  0  0
   11.0967   -1.7898   14.6275 C   0  0  0  0  0  0  0  0  0  0  0  0
   12.2101   -2.3887   15.2121 C   0  0  0  0  0  0  0  0  0  0  0  0
   12.3859   -3.3740   16.1863 C   0  0  0  0  0  0  0  0  0  0  0  0
   13.6731   -3.6080   16.6475 C   0  0  0  0  0  0  0  0  0  0  0  0
   14.7699   -2.9856   16.0492 C   0  0  0  0  0  0  0  0  0  0  0  0
   16.1571   -3.3777   16.4475 C   0  0  0  0  0  0  0  0  0  0  0  0
   17.1250   -2.3079   16.2493 N   0  0  0  0  0  0  0  0  0  0  0  0
   18.4278   -2.8410   15.8791 C   0  0  0  0  0  0  0  0  0  0  0  0
   19.2753   -1.6024   15.9940 C   0  0  0  0  0  0  0  0  0  0  0  0
   18.7745   -0.9701   17.2871 C   0  0  0  0  0  0  0  0  0  0  0  0
   17.3010   -1.4105   17.4052 C   0  0  0  0  0  0  0  0  0  0  0  0
   16.2871   -0.2372   17.4163 C   0  0  0  0  0  0  0  0  0  0  0  0
   16.3887    0.7066   16.2107 C   0  0  0  0  0  0  0  0  0  0  0  0
   15.3059    1.7832   16.2661 C   0  0  0  0  0  0  0  0  0  0  0  0
   14.9495    2.1746   17.5934 O   0  0  0  0  0  0  0  0  0  0  0  0
   16.0175    2.0482   18.5191 C   0  0  0  0  0  0  0  0  0  0  0  0
   16.3796    0.5795   18.7200 C   0  0  0  0  0  0  0  0  0  0  0  0
   14.6006   -2.0876   14.9920 C   0  0  0  0  0  0  0  0  0  0  0  0
   13.3126   -1.7552   14.6536 C   0  0  0  0  0  0  0  0  0  0  0  0
   12.8890   -0.7984   13.7789 N   0  0  0  0  0  0  0  0  0  0  0  0
   10.9806   -0.0421   13.2384 H   0  0  0  0  0  0  0  0  0  0  0  0
   10.0615   -2.0214   14.8309 H   0  0  0  0  0  0  0  0  0  0  0  0
   11.5483   -3.9206   16.5980 H   0  0  0  0  0  0  0  0  0  0  0  0
   13.8139   -4.3091   17.4599 H   0  0  0  0  0  0  0  0  0  0  0  0
   16.4090   -4.2386   15.8114 H   0  0  0  0  0  0  0  0  0  0  0  0
   16.1824   -3.7495   17.4799 H   0  0  0  0  0  0  0  0  0  0  0  0
   18.4410   -3.2431   14.8612 H   0  0  0  0  0  0  0  0  0  0  0  0
   18.7722   -3.6145   16.5771 H   0  0  0  0  0  0  0  0  0  0  0  0
   20.3453   -1.8265   16.0347 H   0  0  0  0  0  0  0  0  0  0  0  0
   19.0992   -0.9250   15.1489 H   0  0  0  0  0  0  0  0  0  0  0  0
   19.3416   -1.3845   18.1306 H   0  0  0  0  0  0  0  0  0  0  0  0
   18.9352    0.1110   17.2902 H   0  0  0  0  0  0  0  0  0  0  0  0
   17.1999   -1.9684   18.3466 H   0  0  0  0  0  0  0  0  0  0  0  0
   15.2768   -0.6653   17.4082 H   0  0  0  0  0  0  0  0  0  0  0  0
   16.3396    0.1863   15.2521 H   0  0  0  0  0  0  0  0  0  0  0  0
   17.3629    1.2105   16.2196 H   0  0  0  0  0  0  0  0  0  0  0  0
   14.3926    1.4204   15.7834 H   0  0  0  0  0  0  0  0  0  0  0  0
   15.6282    2.6732   15.7146 H   0  0  0  0  0  0  0  0  0  0  0  0
   16.8793    2.6284   18.1675 H   0  0  0  0  0  0  0  0  0  0  0  0
   15.7020    2.4864   19.4715 H   0  0  0  0  0  0  0  0  0  0  0  0
   15.6851    0.1345   19.4447 H   0  0  0  0  0  0  0  0  0  0  0  0
   17.3730    0.5203   19.1782 H   0  0  0  0  0  0  0  0  0  0  0  0
   15.4495   -1.6499   14.4798 H   0  0  0  0  0  0  0  0  0  0  0  0
   13.4866   -0.1613   13.2715 H   0  0  0  0  0  0  0  0  0  0  0  0
  1  2  2  0
  2  3  1  0
  3  4  2  0
  4  5  1  0
  5  6  2  0
  6  7  1  0
  7  8  1  0
  8  9  1  0
  9 10  1  0
 10 11  1  0
 11 12  1  0
 12 13  1  0
 13 14  1  0
 14 15  1  0
 15 16  1  0
 16 17  1  0
 17 18  1  0
  6 19  1  0
 19 20  2  0
 20 21  1  0
 21  1  1  0
 20  3  1  0
 12  8  1  0
 18 13  1  0
  1 22  1  0
  2 23  1  0
  4 24  1  0
  5 25  1  0
  7 26  1  0
  7 27  1  0
  9 28  1  0
  9 29  1  0
 10 30  1  0
 10 31  1  0
 11 32  1  0
 11 33  1  0
 12 34  1  0
 13 35  1  0
 14 36  1  0
 14 37  1  0
 15 38  1  0
 15 39  1  0
 17 40  1  0
 17 41  1  0
 18 42  1  0
 18 43  1  0
 19 44  1  0
 21 45  1  0
M  END
>  <Energy>  (101) 
48.187195773602006

>  <compound_id>  (101) 
77248

>  <target_id>  (101) 
1

>  <reference_id>  (101) 
124

>  <inspiration_ids>  (101) 
[124, 97]

>  <energy_score>  (101) 
-33.89648157848194

>  <distance_score>  (101) 
2.313872461984323

>  <path>  (101) 
/opt/xchem-fragalysis-2/maxwin/BulkDock/SCRATCH/511024/C77248-P124/C77248-P124.minimised.mol

>  <scratch_subdir>  (101) 
/opt/xchem-fragalysis-2/maxwin/BulkDock/SCRATCH/511024/C77248-P124

>  <fragmenstein_runtime>  (101) 
12.02298903465271

>  <fragmenstein_outcome>  (101) 
too moved

>  <fragmenstein_mode>  (101) 
expansion

>  <fragmenstein_error>  (101) 


$$$$
C77248-P97
     RDKit          3D

 45 48  0  0  0  0  0  0  0  0999 V2000
   10.9620    0.2914   14.4530 C   0  0  0  0  0  0  0  0  0  0  0  0
   10.6450   -0.8377   15.1776 C   0  0  0  0  0  0  0  0  0  0  0  0
   11.8066   -1.6290   15.2959 C   0  0  0  0  0  0  0  0  0  0  0  0
   12.1311   -2.8269   15.9494 C   0  0  0  0  0  0  0  0  0  0  0  0
   13.4687   -3.1970   16.0374 C   0  0  0  0  0  0  0  0  0  0  0  0
   14.4458   -2.4900   15.3305 C   0  0  0  0  0  0  0  0  0  0  0  0
   15.8864   -2.9143   15.3828 C   0  0  0  0  0  0  0  0  0  0  0  0
   16.7763   -1.8335   15.8330 N   0  0  0  0  0  0  0  0  0  0  0  0
   18.1720   -2.2320   15.6267 C   0  0  0  0  0  0  0  0  0  0  0  0
   18.5347   -2.9811   16.8815 C   0  0  0  0  0  0  0  0  0  0  0  0
   17.8502   -2.1616   17.9631 C   0  0  0  0  0  0  0  0  0  0  0  0
   16.6098   -1.5559   17.2817 C   0  0  0  0  0  0  0  0  0  0  0  0
   16.4660   -0.0330   17.5511 C   0  0  0  0  0  0  0  0  0  0  0  0
   15.3772    0.6332   16.6952 C   0  0  0  0  0  0  0  0  0  0  0  0
   15.1791    2.0954   17.0692 C   0  0  0  0  0  0  0  0  0  0  0  0
   14.8652    2.2250   18.4530 O   0  0  0  0  0  0  0  0  0  0  0  0
   15.9189    1.7298   19.2730 C   0  0  0  0  0  0  0  0  0  0  0  0
   16.1504    0.2429   19.0304 C   0  0  0  0  0  0  0  0  0  0  0  0
   14.0990   -1.4160   14.5055 C   0  0  0  0  0  0  0  0  0  0  0  0
   12.7945   -0.9639   14.5781 C   0  0  0  0  0  0  0  0  0  0  0  0
   12.2491    0.1678   14.0329 N   0  0  0  0  0  0  0  0  0  0  0  0
   10.3487    1.1274   14.1468 H   0  0  0  0  0  0  0  0  0  0  0  0
    9.6603   -1.0545   15.5634 H   0  0  0  0  0  0  0  0  0  0  0  0
   11.3810   -3.4371   16.4291 H   0  0  0  0  0  0  0  0  0  0  0  0
   13.7343   -4.0750   16.6207 H   0  0  0  0  0  0  0  0  0  0  0  0
   15.9964   -3.8139   16.0024 H   0  0  0  0  0  0  0  0  0  0  0  0
   16.1594   -3.2125   14.3617 H   0  0  0  0  0  0  0  0  0  0  0  0
   18.7860   -1.3270   15.5382 H   0  0  0  0  0  0  0  0  0  0  0  0
   18.3425   -2.8196   14.7181 H   0  0  0  0  0  0  0  0  0  0  0  0
   18.1411   -4.0039   16.8680 H   0  0  0  0  0  0  0  0  0  0  0  0
   19.6162   -3.0383   17.0369 H   0  0  0  0  0  0  0  0  0  0  0  0
   17.5815   -2.7870   18.8206 H   0  0  0  0  0  0  0  0  0  0  0  0
   18.5382   -1.3834   18.3139 H   0  0  0  0  0  0  0  0  0  0  0  0
   15.7193   -2.0549   17.6857 H   0  0  0  0  0  0  0  0  0  0  0  0
   17.4200    0.4571   17.3081 H   0  0  0  0  0  0  0  0  0  0  0  0
   14.4299    0.1091   16.8621 H   0  0  0  0  0  0  0  0  0  0  0  0
   15.6354    0.5850   15.6342 H   0  0  0  0  0  0  0  0  0  0  0  0
   14.3446    2.5147   16.4977 H   0  0  0  0  0  0  0  0  0  0  0  0
   16.0700    2.6911   16.8375 H   0  0  0  0  0  0  0  0  0  0  0  0
   16.8313    2.3101   19.0910 H   0  0  0  0  0  0  0  0  0  0  0  0
   15.6304    1.8918   20.3166 H   0  0  0  0  0  0  0  0  0  0  0  0
   15.2432   -0.3071   19.3126 H   0  0  0  0  0  0  0  0  0  0  0  0
   16.9622   -0.1090   19.6756 H   0  0  0  0  0  0  0  0  0  0  0  0
   14.8549   -0.8916   13.9292 H   0  0  0  0  0  0  0  0  0  0  0  0
   12.7496    0.8304   13.4584 H   0  0  0  0  0  0  0  0  0  0  0  0
  1  2  2  0
  2  3  1  0
  3  4  2  0
  4  5  1  0
  5  6  2  0
  6  7  1  0
  7  8  1  0
  8  9  1  0
  9 10  1  0
 10 11  1  0
 11 12  1  0
 12 13  1  0
 13 14  1  0
 14 15  1  0
 15 16  1  0
 16 17  1  0
 17 18  1  0
  6 19  1  0
 19 20  2  0
 20 21  1  0
 21  1  1  0
 20  3  1  0
 12  8  1  0
 18 13  1  0
  1 22  1  0
  2 23  1  0
  4 24  1  0
  5 25  1  0
  7 26  1  0
  7 27  1  0
  9 28  1  0
  9 29  1  0
 10 30  1  0
 10 31  1  0
 11 32  1  0
 11 33  1  0
 12 34  1  0
 13 35  1  0
 14 36  1  0
 14 37  1  0
 15 38  1  0
 15 39  1  0
 17 40  1  0
 17 41  1  0
 18 42  1  0
 18 43  1  0
 19 44  1  0
 21 45  1  0
M  END
>  <Energy>  (102) 
41.57981554577033

>  <compound_id>  (102) 
77248

>  <target_id>  (102) 
1

>  <reference_id>  (102) 
97

>  <inspiration_ids>  (102) 
[124, 97]

>  <energy_score>  (102) 
-40.50386180631395

>  <distance_score>  (102) 
2.26903664902147

>  <path>  (102) 
/opt/xchem-fragalysis-2/maxwin/BulkDock/SCRATCH/511024/C77248-P97/C77248-P97.minimised.mol

>  <scratch_subdir>  (102) 
/opt/xchem-fragalysis-2/maxwin/BulkDock/SCRATCH/511024/C77248-P97

>  <fragmenstein_runtime>  (102) 
12.049570798873901

>  <fragmenstein_outcome>  (102) 
too moved

>  <fragmenstein_mode>  (102) 
expansion

>  <fragmenstein_error>  (102) 


$$$$
C24751-P124
     RDKit          3D

 37 40  0  0  0  0  0  0  0  0999 V2000
   12.0509   -1.6168   14.1519 C   0  0  0  0  0  0  0  0  0  0  0  0
   13.4021   -1.3121   14.2395 C   0  0  0  0  0  0  0  0  0  0  0  0
   14.2558   -1.9488   15.1686 C   0  0  0  0  0  0  0  0  0  0  0  0
   15.7141   -1.5593   15.1221 C   0  0  0  0  0  0  0  0  0  0  0  0
   16.5767   -2.0702   16.2035 N   0  0  0  0  0  0  0  0  0  0  0  0
   17.9756   -1.7235   15.9395 C   0  0  0  0  0  0  0  0  0  0  0  0
   18.0925   -0.2839   16.4164 C   0  0  0  0  0  0  0  0  0  0  0  0
   17.2290   -0.2626   17.6846 C   0  0  0  0  0  0  0  0  0  0  0  0
   16.4978    0.9282   18.0410 N   0  0  0  0  0  0  0  0  0  0  0  0
   16.0823    1.9679   17.2724 C   0  0  0  0  0  0  0  0  0  0  0  0
   15.3912    2.8128   18.0034 N   0  0  0  0  0  0  0  0  0  0  0  0
   15.3904    2.2249   19.2334 C   0  0  0  0  0  0  0  0  0  0  0  0
   16.0336    1.0581   19.3036 N   0  0  0  0  0  0  0  0  0  0  0  0
   16.2783   -1.4345   17.5070 C   0  0  0  0  0  0  0  0  0  0  0  0
   13.6720   -2.8956   16.0375 C   0  0  0  0  0  0  0  0  0  0  0  0
   14.1386   -3.6706   17.1345 C   0  0  0  0  0  0  0  0  0  0  0  0
   13.0449   -4.2380   17.7169 C   0  0  0  0  0  0  0  0  0  0  0  0
   12.0446   -4.1803   16.7936 N   0  0  0  0  0  0  0  0  0  0  0  0
   12.3210   -3.2006   15.8850 C   0  0  0  0  0  0  0  0  0  0  0  0
   11.4866   -2.6002   14.9496 C   0  0  0  0  0  0  0  0  0  0  0  0
   11.4284   -1.0694   13.4520 H   0  0  0  0  0  0  0  0  0  0  0  0
   13.8012   -0.5526   13.5691 H   0  0  0  0  0  0  0  0  0  0  0  0
   15.7658   -0.4647   15.0652 H   0  0  0  0  0  0  0  0  0  0  0  0
   16.0941   -1.9500   14.1681 H   0  0  0  0  0  0  0  0  0  0  0  0
   18.6272   -2.3736   16.5367 H   0  0  0  0  0  0  0  0  0  0  0  0
   18.2729   -1.8453   14.8924 H   0  0  0  0  0  0  0  0  0  0  0  0
   19.1311   -0.0163   16.6383 H   0  0  0  0  0  0  0  0  0  0  0  0
   17.7369    0.4122   15.6505 H   0  0  0  0  0  0  0  0  0  0  0  0
   17.8953   -0.4689   18.5347 H   0  0  0  0  0  0  0  0  0  0  0  0
   16.2922    2.0698   16.2175 H   0  0  0  0  0  0  0  0  0  0  0  0
   14.9026    2.6540   20.0992 H   0  0  0  0  0  0  0  0  0  0  0  0
   15.2261   -1.1525   17.6239 H   0  0  0  0  0  0  0  0  0  0  0  0
   16.4932   -2.1631   18.2994 H   0  0  0  0  0  0  0  0  0  0  0  0
   15.1337   -3.7188   17.5443 H   0  0  0  0  0  0  0  0  0  0  0  0
   12.9150   -4.7474   18.6604 H   0  0  0  0  0  0  0  0  0  0  0  0
   11.1530   -4.6463   16.8726 H   0  0  0  0  0  0  0  0  0  0  0  0
   10.4384   -2.8568   14.8556 H   0  0  0  0  0  0  0  0  0  0  0  0
  1  2  2  0
  2  3  1  0
  3  4  1  0
  4  5  1  0
  5  6  1  0
  6  7  1  0
  7  8  1  0
  8  9  1  0
  9 10  1  0
 10 11  2  0
 11 12  1  0
 12 13  2  0
  8 14  1  0
  3 15  2  0
 15 16  1  0
 16 17  2  0
 17 18  1  0
 18 19  1  0
 19 20  2  0
 20  1  1  0
 14  5  1  0
 19 15  1  0
 13  9  1  0
  1 21  1  0
  2 22  1  0
  4 23  1  0
  4 24  1  0
  6 25  1  0
  6 26  1  0
  7 27  1  0
  7 28  1  0
  8 29  1  0
 10 30  1  0
 12 31  1  0
 14 32  1  0
 14 33  1  0
 16 34  1  0
 17 35  1  0
 18 36  1  0
 20 37  1  0
M  END
>  <Energy>  (103) 
55.520735958971159

>  <compound_id>  (103) 
24751

>  <target_id>  (103) 
1

>  <reference_id>  (103) 
124

>  <inspiration_ids>  (103) 
[124, 97]

>  <energy_score>  (103) 
-15.88633517683283

>  <distance_score>  (103) 
1.6895305873155106

>  <path>  (103) 
/opt/xchem-fragalysis-2/maxwin/BulkDock/SCRATCH/511024/C24751-P124/C24751-P124.minimised.mol

>  <scratch_subdir>  (103) 
/opt/xchem-fragalysis-2/maxwin/BulkDock/SCRATCH/511024/C24751-P124

>  <fragmenstein_runtime>  (103) 
6.83219313621521

>  <fragmenstein_outcome>  (103) 
too moved

>  <fragmenstein_mode>  (103) 
expansion

>  <fragmenstein_error>  (103) 


$$$$
C24751-P97
     RDKit          3D

 37 40  0  0  0  0  0  0  0  0999 V2000
   12.0662   -1.6560   14.3990 C   0  0  0  0  0  0  0  0  0  0  0  0
   13.4157   -1.3413   14.4283 C   0  0  0  0  0  0  0  0  0  0  0  0
   14.3194   -2.0120   15.2829 C   0  0  0  0  0  0  0  0  0  0  0  0
   15.7748   -1.6283   15.1670 C   0  0  0  0  0  0  0  0  0  0  0  0
   16.6644   -2.0976   16.2425 N   0  0  0  0  0  0  0  0  0  0  0  0
   18.0470   -1.7048   15.9708 C   0  0  0  0  0  0  0  0  0  0  0  0
   18.1183   -0.2647   16.4527 C   0  0  0  0  0  0  0  0  0  0  0  0
   17.2438   -0.2649   17.7151 C   0  0  0  0  0  0  0  0  0  0  0  0
   16.4583    0.9022   18.0362 N   0  0  0  0  0  0  0  0  0  0  0  0
   15.9609    1.8744   17.2276 C   0  0  0  0  0  0  0  0  0  0  0  0
   15.2355    2.7129   17.9320 N   0  0  0  0  0  0  0  0  0  0  0  0
   15.3026    2.1909   19.1903 C   0  0  0  0  0  0  0  0  0  0  0  0
   16.0264    1.0758   19.3037 N   0  0  0  0  0  0  0  0  0  0  0  0
   16.3499   -1.4837   17.5522 C   0  0  0  0  0  0  0  0  0  0  0  0
   13.7995   -3.0106   16.1380 C   0  0  0  0  0  0  0  0  0  0  0  0
   14.3585   -3.8751   17.1254 C   0  0  0  0  0  0  0  0  0  0  0  0
   13.3233   -4.4991   17.7558 C   0  0  0  0  0  0  0  0  0  0  0  0
   12.2191   -4.3024   16.9807 N   0  0  0  0  0  0  0  0  0  0  0  0
   12.4405   -3.3034   16.0721 C   0  0  0  0  0  0  0  0  0  0  0  0
   11.5560   -2.6692   15.1993 C   0  0  0  0  0  0  0  0  0  0  0  0
   11.4096   -1.1119   13.7279 H   0  0  0  0  0  0  0  0  0  0  0  0
   13.7796   -0.5650   13.7577 H   0  0  0  0  0  0  0  0  0  0  0  0
   15.8276   -0.5372   15.0666 H   0  0  0  0  0  0  0  0  0  0  0  0
   16.1255   -2.0562   14.2181 H   0  0  0  0  0  0  0  0  0  0  0  0
   18.7244   -2.3345   16.5608 H   0  0  0  0  0  0  0  0  0  0  0  0
   18.3404   -1.8122   14.9210 H   0  0  0  0  0  0  0  0  0  0  0  0
   19.1475    0.0304   16.6841 H   0  0  0  0  0  0  0  0  0  0  0  0
   17.7529    0.4230   15.6839 H   0  0  0  0  0  0  0  0  0  0  0  0
   17.9106   -0.4235   18.5748 H   0  0  0  0  0  0  0  0  0  0  0  0
   16.1381    1.9316   16.1637 H   0  0  0  0  0  0  0  0  0  0  0  0
   14.8073    2.6313   20.0462 H   0  0  0  0  0  0  0  0  0  0  0  0
   15.2876   -1.2566   17.6920 H   0  0  0  0  0  0  0  0  0  0  0  0
   16.6124   -2.2073   18.3351 H   0  0  0  0  0  0  0  0  0  0  0  0
   15.3914   -3.9538   17.4281 H   0  0  0  0  0  0  0  0  0  0  0  0
   13.2884   -5.0958   18.6548 H   0  0  0  0  0  0  0  0  0  0  0  0
   11.3167   -4.7146   17.1590 H   0  0  0  0  0  0  0  0  0  0  0  0
   10.5116   -2.9451   15.1286 H   0  0  0  0  0  0  0  0  0  0  0  0
  1  2  2  0
  2  3  1  0
  3  4  1  0
  4  5  1  0
  5  6  1  0
  6  7  1  0
  7  8  1  0
  8  9  1  0
  9 10  1  0
 10 11  2  0
 11 12  1  0
 12 13  2  0
  8 14  1  0
  3 15  2  0
 15 16  1  0
 16 17  2  0
 17 18  1  0
 18 19  1  0
 19 20  2  0
 20  1  1  0
 14  5  1  0
 19 15  1  0
 13  9  1  0
  1 21  1  0
  2 22  1  0
  4 23  1  0
  4 24  1  0
  6 25  1  0
  6 26  1  0
  7 27  1  0
  7 28  1  0
  8 29  1  0
 10 30  1  0
 12 31  1  0
 14 32  1  0
 14 33  1  0
 16 34  1  0
 17 35  1  0
 18 36  1  0
 20 37  1  0
M  END
>  <Energy>  (104) 
52.868312188821335

>  <compound_id>  (104) 
24751

>  <target_id>  (104) 
1

>  <reference_id>  (104) 
97

>  <inspiration_ids>  (104) 
[124, 97]

>  <energy_score>  (104) 
-18.538758946982398

>  <distance_score>  (104) 
1.7094443197524989

>  <path>  (104) 
/opt/xchem-fragalysis-2/maxwin/BulkDock/SCRATCH/511024/C24751-P97/C24751-P97.minimised.mol

>  <scratch_subdir>  (104) 
/opt/xchem-fragalysis-2/maxwin/BulkDock/SCRATCH/511024/C24751-P97

>  <fragmenstein_runtime>  (104) 
7.086665868759155

>  <fragmenstein_outcome>  (104) 
too moved

>  <fragmenstein_mode>  (104) 
expansion

>  <fragmenstein_error>  (104) 


$$$$
C77251-P124
     RDKit          3D

 41 44  0  0  0  0  0  0  0  0999 V2000
   18.0499    0.2548   15.2590 O   0  0  0  0  0  0  0  0  0  0  0  0
   17.6113   -0.7708   14.9350 C   0  0  0  0  0  0  0  0  0  0  0  0
   16.1590   -1.1832   14.6260 N   0  0  0  0  0  0  0  0  0  0  0  0
   14.9408   -0.4469   14.7428 C   0  0  0  0  0  0  0  0  0  0  0  0
   13.8750   -1.4443   15.1201 C   0  0  0  0  0  0  0  0  0  0  0  0
   12.7068   -1.5614   14.3528 C   0  0  0  0  0  0  0  0  0  0  0  0
   11.7260   -2.4934   14.6695 C   0  0  0  0  0  0  0  0  0  0  0  0
   11.8661   -3.3383   15.7667 C   0  0  0  0  0  0  0  0  0  0  0  0
   13.0075   -3.2450   16.5703 C   0  0  0  0  0  0  0  0  0  0  0  0
   13.4284   -3.8717   17.7702 C   0  0  0  0  0  0  0  0  0  0  0  0
   14.6491   -3.3528   18.1248 C   0  0  0  0  0  0  0  0  0  0  0  0
   14.9635   -2.4056   17.1963 N   0  0  0  0  0  0  0  0  0  0  0  0
   13.9825   -2.3149   16.2316 C   0  0  0  0  0  0  0  0  0  0  0  0
   18.2757   -1.9803   14.8179 N   0  0  0  0  0  0  0  0  0  0  0  0
   18.9322   -2.4772   13.6344 C   0  0  0  0  0  0  0  0  0  0  0  0
   19.0292   -3.9852   13.9066 C   0  0  0  0  0  0  0  0  0  0  0  0
   18.1671   -4.2079   15.1694 C   0  0  0  0  0  0  0  0  0  0  0  0
   18.4324   -5.3738   15.9583 N   0  0  0  0  0  0  0  0  0  0  0  0
   19.6228   -5.8616   16.3966 C   0  0  0  0  0  0  0  0  0  0  0  0
   19.4190   -6.9480   17.1050 N   0  0  0  0  0  0  0  0  0  0  0  0
   18.0604   -7.0866   17.0767 C   0  0  0  0  0  0  0  0  0  0  0  0
   17.4108   -6.1370   16.3965 N   0  0  0  0  0  0  0  0  0  0  0  0
   18.3830   -2.9071   15.9165 C   0  0  0  0  0  0  0  0  0  0  0  0
   16.1427   -2.1381   14.2922 H   0  0  0  0  0  0  0  0  0  0  0  0
   14.7409    0.0244   13.7761 H   0  0  0  0  0  0  0  0  0  0  0  0
   15.0489    0.3303   15.5049 H   0  0  0  0  0  0  0  0  0  0  0  0
   12.5490   -0.9122   13.4936 H   0  0  0  0  0  0  0  0  0  0  0  0
   10.8375   -2.5745   14.0592 H   0  0  0  0  0  0  0  0  0  0  0  0
   11.1003   -4.0652   15.9970 H   0  0  0  0  0  0  0  0  0  0  0  0
   12.8651   -4.5904   18.3448 H   0  0  0  0  0  0  0  0  0  0  0  0
   15.2931   -3.5484   18.9718 H   0  0  0  0  0  0  0  0  0  0  0  0
   15.7739   -1.8028   17.2238 H   0  0  0  0  0  0  0  0  0  0  0  0
   19.9173   -2.0109   13.5393 H   0  0  0  0  0  0  0  0  0  0  0  0
   18.3310   -2.2416   12.7513 H   0  0  0  0  0  0  0  0  0  0  0  0
   18.6826   -4.5797   13.0565 H   0  0  0  0  0  0  0  0  0  0  0  0
   20.0773   -4.2564   14.0799 H   0  0  0  0  0  0  0  0  0  0  0  0
   17.1170   -4.2695   14.8487 H   0  0  0  0  0  0  0  0  0  0  0  0
   20.5810   -5.4083   16.1848 H   0  0  0  0  0  0  0  0  0  0  0  0
   17.5304   -7.8966   17.5646 H   0  0  0  0  0  0  0  0  0  0  0  0
   19.3866   -2.8220   16.3496 H   0  0  0  0  0  0  0  0  0  0  0  0
   17.6466   -2.7135   16.6966 H   0  0  0  0  0  0  0  0  0  0  0  0
  1  2  2  0
  2  3  1  0
  3  4  1  0
  4  5  1  0
  5  6  2  0
  6  7  1  0
  7  8  2  0
  8  9  1  0
  9 10  1  0
 10 11  2  0
 11 12  1  0
 12 13  1  0
  2 14  1  0
 14 15  1  0
 15 16  1  0
 16 17  1  0
 17 18  1  0
 18 19  1  0
 19 20  2  0
 20 21  1  0
 21 22  2  0
 17 23  1  0
 13  5  1  0
 23 14  1  0
 13  9  2  0
 22 18  1  0
  3 24  1  0
  4 25  1  0
  4 26  1  0
  6 27  1  0
  7 28  1  0
  8 29  1  0
 10 30  1  0
 11 31  1  0
 12 32  1  0
 15 33  1  0
 15 34  1  0
 16 35  1  0
 16 36  1  0
 17 37  1  0
 19 38  1  0
 21 39  1  0
 23 40  1  0
 23 41  1  0
M  END
>  <Energy>  (105) 
-15.869675309155296

>  <compound_id>  (105) 
77251

>  <target_id>  (105) 
1

>  <reference_id>  (105) 
124

>  <inspiration_ids>  (105) 
[124, 97]

>  <energy_score>  (105) 
0.11656865135918792

>  <distance_score>  (105) 
2.4769362234743832

>  <path>  (105) 
/opt/xchem-fragalysis-2/maxwin/BulkDock/SCRATCH/511024/C77251-P124/C77251-P124.minimised.mol

>  <scratch_subdir>  (105) 
/opt/xchem-fragalysis-2/maxwin/BulkDock/SCRATCH/511024/C77251-P124

>  <fragmenstein_runtime>  (105) 
5.000278472900391

>  <fragmenstein_outcome>  (105) 
too moved

>  <fragmenstein_mode>  (105) 
expansion

>  <fragmenstein_error>  (105) 


$$$$
C77251-P97
     RDKit          3D

 41 44  0  0  0  0  0  0  0  0999 V2000
   17.2769   -1.4573   18.0557 O   0  0  0  0  0  0  0  0  0  0  0  0
   17.0741   -1.4759   16.9134 C   0  0  0  0  0  0  0  0  0  0  0  0
   15.9815   -0.7906   16.0875 N   0  0  0  0  0  0  0  0  0  0  0  0
   14.8550   -0.0172   16.5000 C   0  0  0  0  0  0  0  0  0  0  0  0
   13.6702   -0.8863   16.1578 C   0  0  0  0  0  0  0  0  0  0  0  0
   12.7394   -0.4736   15.1953 C   0  0  0  0  0  0  0  0  0  0  0  0
   11.7271   -1.3184   14.7591 C   0  0  0  0  0  0  0  0  0  0  0  0
   11.6227   -2.6266   15.2337 C   0  0  0  0  0  0  0  0  0  0  0  0
   12.5371   -3.0734   16.2003 C   0  0  0  0  0  0  0  0  0  0  0  0
   12.7374   -4.3024   16.8734 C   0  0  0  0  0  0  0  0  0  0  0  0
   13.7776   -4.1502   17.7573 C   0  0  0  0  0  0  0  0  0  0  0  0
   14.2418   -2.8745   17.6222 N   0  0  0  0  0  0  0  0  0  0  0  0
   13.5135   -2.1973   16.6619 C   0  0  0  0  0  0  0  0  0  0  0  0
   17.7535   -2.2374   15.9857 N   0  0  0  0  0  0  0  0  0  0  0  0
   18.9379   -1.8568   15.2555 C   0  0  0  0  0  0  0  0  0  0  0  0
   19.0429   -2.9410   14.1895 C   0  0  0  0  0  0  0  0  0  0  0  0
   18.4063   -4.1731   14.8508 C   0  0  0  0  0  0  0  0  0  0  0  0
   19.3540   -4.9303   15.6428 N   0  0  0  0  0  0  0  0  0  0  0  0
   19.7403   -4.7733   16.9392 C   0  0  0  0  0  0  0  0  0  0  0  0
   20.6535   -5.6683   17.2391 N   0  0  0  0  0  0  0  0  0  0  0  0
   20.7998   -6.3611   16.0742 C   0  0  0  0  0  0  0  0  0  0  0  0
   20.0346   -5.9420   15.0636 N   0  0  0  0  0  0  0  0  0  0  0  0
   17.2799   -3.5719   15.6637 C   0  0  0  0  0  0  0  0  0  0  0  0
   16.1488   -0.9549   15.1050 H   0  0  0  0  0  0  0  0  0  0  0  0
   14.8562    0.9281   15.9510 H   0  0  0  0  0  0  0  0  0  0  0  0
   14.9016    0.1719   17.5761 H   0  0  0  0  0  0  0  0  0  0  0  0
   12.8106    0.5210   14.7593 H   0  0  0  0  0  0  0  0  0  0  0  0
   11.0247   -0.9490   14.0210 H   0  0  0  0  0  0  0  0  0  0  0  0
   10.8449   -3.2830   14.8564 H   0  0  0  0  0  0  0  0  0  0  0  0
   12.1452   -5.1918   16.7323 H   0  0  0  0  0  0  0  0  0  0  0  0
   14.2130   -4.8162   18.4884 H   0  0  0  0  0  0  0  0  0  0  0  0
   15.0013   -2.4695   18.1573 H   0  0  0  0  0  0  0  0  0  0  0  0
   19.7871   -1.8720   15.9461 H   0  0  0  0  0  0  0  0  0  0  0  0
   18.8329   -0.8493   14.8438 H   0  0  0  0  0  0  0  0  0  0  0  0
   18.4449   -2.6509   13.3162 H   0  0  0  0  0  0  0  0  0  0  0  0
   20.0746   -3.0945   13.8585 H   0  0  0  0  0  0  0  0  0  0  0  0
   18.0140   -4.8689   14.1026 H   0  0  0  0  0  0  0  0  0  0  0  0
   19.3463   -4.0171   17.6059 H   0  0  0  0  0  0  0  0  0  0  0  0
   21.4847   -7.1913   15.9583 H   0  0  0  0  0  0  0  0  0  0  0  0
   16.3783   -3.4570   15.0506 H   0  0  0  0  0  0  0  0  0  0  0  0
   17.0071   -4.1201   16.5711 H   0  0  0  0  0  0  0  0  0  0  0  0
  1  2  2  0
  2  3  1  0
  3  4  1  0
  4  5  1  0
  5  6  2  0
  6  7  1  0
  7  8  2  0
  8  9  1  0
  9 10  1  0
 10 11  2  0
 11 12  1  0
 12 13  1  0
  2 14  1  0
 14 15  1  0
 15 16  1  0
 16 17  1  0
 17 18  1  0
 18 19  1  0
 19 20  2  0
 20 21  1  0
 21 22  2  0
 17 23  1  0
 13  5  1  0
 23 14  1  0
 13  9  2  0
 22 18  1  0
  3 24  1  0
  4 25  1  0
  4 26  1  0
  6 27  1  0
  7 28  1  0
  8 29  1  0
 10 30  1  0
 11 31  1  0
 12 32  1  0
 15 33  1  0
 15 34  1  0
 16 35  1  0
 16 36  1  0
 17 37  1  0
 19 38  1  0
 21 39  1  0
 23 40  1  0
 23 41  1  0
M  END
>  <Energy>  (106) 
-25.559604103205224

>  <compound_id>  (106) 
77251

>  <target_id>  (106) 
1

>  <reference_id>  (106) 
97

>  <inspiration_ids>  (106) 
[124, 97]

>  <energy_score>  (106) 
-9.57336014269191

>  <distance_score>  (106) 
1.969563183907482

>  <path>  (106) 
/opt/xchem-fragalysis-2/maxwin/BulkDock/SCRATCH/511024/C77251-P97/C77251-P97.minimised.mol

>  <scratch_subdir>  (106) 
/opt/xchem-fragalysis-2/maxwin/BulkDock/SCRATCH/511024/C77251-P97

>  <fragmenstein_runtime>  (106) 
5.654796600341797

>  <fragmenstein_outcome>  (106) 
too moved

>  <fragmenstein_mode>  (106) 
expansion

>  <fragmenstein_error>  (106) 


$$$$
C77252-P124
     RDKit          3D

 40 43  0  0  0  0  0  0  0  0999 V2000
   15.8843    0.7566   13.2960 O   0  0  0  0  0  0  0  0  0  0  0  0
   16.2943    0.1196   14.1815 C   0  0  0  0  0  0  0  0  0  0  0  0
   15.5740   -0.8823   15.1129 N   0  0  0  0  0  0  0  0  0  0  0  0
   14.2763   -1.3587   15.0874 C   0  0  0  0  0  0  0  0  0  0  0  0
   13.3351   -0.9312   14.1596 C   0  0  0  0  0  0  0  0  0  0  0  0
   12.0715   -1.5115   14.1153 C   0  0  0  0  0  0  0  0  0  0  0  0
   11.7173   -2.5644   14.9584 C   0  0  0  0  0  0  0  0  0  0  0  0
   12.6495   -2.9926   15.9137 C   0  0  0  0  0  0  0  0  0  0  0  0
   12.6254   -3.9765   16.9222 C   0  0  0  0  0  0  0  0  0  0  0  0
   13.7675   -3.8513   17.6719 C   0  0  0  0  0  0  0  0  0  0  0  0
   14.5785   -2.9658   17.0291 N   0  0  0  0  0  0  0  0  0  0  0  0
   13.9005   -2.3766   15.9805 C   0  0  0  0  0  0  0  0  0  0  0  0
   17.8232    0.1039   14.5318 C   0  0  0  0  0  0  0  0  0  0  0  0
   18.4892    1.1167   14.6411 O   0  0  0  0  0  0  0  0  0  0  0  0
   18.3147   -1.1839   14.5978 N   0  0  0  0  0  0  0  0  0  0  0  0
   18.7771   -1.9040   13.4305 C   0  0  0  0  0  0  0  0  0  0  0  0
   18.8401   -3.3646   13.9038 C   0  0  0  0  0  0  0  0  0  0  0  0
   18.0497   -3.3628   15.2256 C   0  0  0  0  0  0  0  0  0  0  0  0
   18.2438   -4.4298   16.1604 N   0  0  0  0  0  0  0  0  0  0  0  0
   19.0133   -5.5423   16.0650 C   0  0  0  0  0  0  0  0  0  0  0  0
   18.8615   -6.2722   17.1451 N   0  0  0  0  0  0  0  0  0  0  0  0
   17.9544   -5.5635   17.8773 C   0  0  0  0  0  0  0  0  0  0  0  0
   17.5421   -4.4219   17.3152 N   0  0  0  0  0  0  0  0  0  0  0  0
   18.4471   -1.9993   15.7860 C   0  0  0  0  0  0  0  0  0  0  0  0
   16.2066   -1.1935   15.8219 H   0  0  0  0  0  0  0  0  0  0  0  0
   13.5580   -0.1268   13.4631 H   0  0  0  0  0  0  0  0  0  0  0  0
   11.3453   -1.1125   13.4171 H   0  0  0  0  0  0  0  0  0  0  0  0
   10.7310   -3.0117   14.8870 H   0  0  0  0  0  0  0  0  0  0  0  0
   11.8025   -4.6415   17.1150 H   0  0  0  0  0  0  0  0  0  0  0  0
   14.0893   -4.3292   18.5863 H   0  0  0  0  0  0  0  0  0  0  0  0
   15.5181   -2.7436   17.3276 H   0  0  0  0  0  0  0  0  0  0  0  0
   19.7576   -1.5249   13.1271 H   0  0  0  0  0  0  0  0  0  0  0  0
   18.0668   -1.7623   12.6099 H   0  0  0  0  0  0  0  0  0  0  0  0
   19.8876   -3.6454   14.0696 H   0  0  0  0  0  0  0  0  0  0  0  0
   18.4291   -4.0568   13.1639 H   0  0  0  0  0  0  0  0  0  0  0  0
   16.9799   -3.3735   14.9743 H   0  0  0  0  0  0  0  0  0  0  0  0
   19.6472   -5.7800   15.2224 H   0  0  0  0  0  0  0  0  0  0  0  0
   17.5846   -5.8898   18.8418 H   0  0  0  0  0  0  0  0  0  0  0  0
   17.8496   -1.6390   16.6259 H   0  0  0  0  0  0  0  0  0  0  0  0
   19.4991   -1.9779   16.0987 H   0  0  0  0  0  0  0  0  0  0  0  0
  1  2  2  0
  2  3  1  0
  3  4  1  0
  4  5  2  0
  5  6  1  0
  6  7  2  0
  7  8  1  0
  8  9  1  0
  9 10  2  0
 10 11  1  0
 11 12  1  0
  2 13  1  0
 13 14  2  0
 13 15  1  0
 15 16  1  0
 16 17  1  0
 17 18  1  0
 18 19  1  0
 19 20  1  0
 20 21  2  0
 21 22  1  0
 22 23  2  0
 18 24  1  0
 12  4  1  0
 24 15  1  0
 12  8  2  0
 23 19  1  0
  3 25  1  0
  5 26  1  0
  6 27  1  0
  7 28  1  0
  9 29  1  0
 10 30  1  0
 11 31  1  0
 16 32  1  0
 16 33  1  0
 17 34  1  0
 17 35  1  0
 18 36  1  0
 20 37  1  0
 22 38  1  0
 24 39  1  0
 24 40  1  0
M  END
>  <Energy>  (107) 
105.55361948209332

>  <compound_id>  (107) 
77252

>  <target_id>  (107) 
1

>  <reference_id>  (107) 
124

>  <inspiration_ids>  (107) 
[124, 97]

>  <energy_score>  (107) 
17.69896638674618

>  <distance_score>  (107) 
2.4752540732138386

>  <path>  (107) 
/opt/xchem-fragalysis-2/maxwin/BulkDock/SCRATCH/511024/C77252-P124/C77252-P124.minimised.mol

>  <scratch_subdir>  (107) 
/opt/xchem-fragalysis-2/maxwin/BulkDock/SCRATCH/511024/C77252-P124

>  <fragmenstein_runtime>  (107) 
6.4463372230529785

>  <fragmenstein_outcome>  (107) 
too moved

>  <fragmenstein_mode>  (107) 
expansion

>  <fragmenstein_error>  (107) 


$$$$
C77252-P97
     RDKit          3D

 40 43  0  0  0  0  0  0  0  0999 V2000
   16.2800   -1.4332   18.0370 O   0  0  0  0  0  0  0  0  0  0  0  0
   16.3412   -0.8432   17.0334 C   0  0  0  0  0  0  0  0  0  0  0  0
   15.2772   -0.6148   15.9420 N   0  0  0  0  0  0  0  0  0  0  0  0
   13.9943   -1.1236   15.8149 C   0  0  0  0  0  0  0  0  0  0  0  0
   13.1537   -0.6204   14.8205 C   0  0  0  0  0  0  0  0  0  0  0  0
   11.9649   -1.2656   14.4963 C   0  0  0  0  0  0  0  0  0  0  0  0
   11.6164   -2.4752   15.1005 C   0  0  0  0  0  0  0  0  0  0  0  0
   12.4620   -3.0092   16.0859 C   0  0  0  0  0  0  0  0  0  0  0  0
   12.4614   -4.2112   16.8311 C   0  0  0  0  0  0  0  0  0  0  0  0
   13.5113   -4.1765   17.7145 C   0  0  0  0  0  0  0  0  0  0  0  0
   14.1952   -3.0227   17.4816 N   0  0  0  0  0  0  0  0  0  0  0  0
   13.6005   -2.3007   16.4667 C   0  0  0  0  0  0  0  0  0  0  0  0
   17.6845   -0.2335   16.5731 C   0  0  0  0  0  0  0  0  0  0  0  0
   18.1595    0.7916   17.0093 O   0  0  0  0  0  0  0  0  0  0  0  0
   18.2169   -1.1290   15.6807 N   0  0  0  0  0  0  0  0  0  0  0  0
   18.0819   -1.1052   14.2439 C   0  0  0  0  0  0  0  0  0  0  0  0
   18.1086   -2.5917   13.8705 C   0  0  0  0  0  0  0  0  0  0  0  0
   18.3492   -3.3319   15.2082 C   0  0  0  0  0  0  0  0  0  0  0  0
   19.0578   -4.5696   15.0766 N   0  0  0  0  0  0  0  0  0  0  0  0
   18.5261   -5.8207   15.0160 C   0  0  0  0  0  0  0  0  0  0  0  0
   19.4846   -6.6944   14.8121 N   0  0  0  0  0  0  0  0  0  0  0  0
   20.6041   -5.9145   14.7586 C   0  0  0  0  0  0  0  0  0  0  0  0
   20.3907   -4.6031   14.8979 N   0  0  0  0  0  0  0  0  0  0  0  0
   19.0173   -2.2636   16.0807 C   0  0  0  0  0  0  0  0  0  0  0  0
   15.6428    0.0165   15.2406 H   0  0  0  0  0  0  0  0  0  0  0  0
   13.4207    0.2802   14.2738 H   0  0  0  0  0  0  0  0  0  0  0  0
   11.3188   -0.8380   13.7346 H   0  0  0  0  0  0  0  0  0  0  0  0
   10.7141   -2.9956   14.7939 H   0  0  0  0  0  0  0  0  0  0  0  0
   11.7226   -4.9915   16.7562 H   0  0  0  0  0  0  0  0  0  0  0  0
   13.8085   -4.8433   18.5107 H   0  0  0  0  0  0  0  0  0  0  0  0
   15.0018   -2.7026   18.0081 H   0  0  0  0  0  0  0  0  0  0  0  0
   18.9469   -0.5788   13.8266 H   0  0  0  0  0  0  0  0  0  0  0  0
   17.1734   -0.5932   13.9227 H   0  0  0  0  0  0  0  0  0  0  0  0
   18.8987   -2.7834   13.1356 H   0  0  0  0  0  0  0  0  0  0  0  0
   17.1607   -2.9040   13.4196 H   0  0  0  0  0  0  0  0  0  0  0  0
   17.3680   -3.5717   15.6441 H   0  0  0  0  0  0  0  0  0  0  0  0
   17.4692   -6.0308   15.1120 H   0  0  0  0  0  0  0  0  0  0  0  0
   21.5995   -6.3129   14.6082 H   0  0  0  0  0  0  0  0  0  0  0  0
   18.9333   -2.4654   17.1526 H   0  0  0  0  0  0  0  0  0  0  0  0
   20.0634   -2.0711   15.8194 H   0  0  0  0  0  0  0  0  0  0  0  0
  1  2  2  0
  2  3  1  0
  3  4  1  0
  4  5  2  0
  5  6  1  0
  6  7  2  0
  7  8  1  0
  8  9  1  0
  9 10  2  0
 10 11  1  0
 11 12  1  0
  2 13  1  0
 13 14  2  0
 13 15  1  0
 15 16  1  0
 16 17  1  0
 17 18  1  0
 18 19  1  0
 19 20  1  0
 20 21  2  0
 21 22  1  0
 22 23  2  0
 18 24  1  0
 12  4  1  0
 24 15  1  0
 12  8  2  0
 23 19  1  0
  3 25  1  0
  5 26  1  0
  6 27  1  0
  7 28  1  0
  9 29  1  0
 10 30  1  0
 11 31  1  0
 16 32  1  0
 16 33  1  0
 17 34  1  0
 17 35  1  0
 18 36  1  0
 20 37  1  0
 22 38  1  0
 24 39  1  0
 24 40  1  0
M  END
>  <Energy>  (108) 
104.15663202676743

>  <compound_id>  (108) 
77252

>  <target_id>  (108) 
1

>  <reference_id>  (108) 
97

>  <inspiration_ids>  (108) 
[124, 97]

>  <energy_score>  (108) 
16.301978931417977

>  <distance_score>  (108) 
2.2453068498816053

>  <path>  (108) 
/opt/xchem-fragalysis-2/maxwin/BulkDock/SCRATCH/511024/C77252-P97/C77252-P97.minimised.mol

>  <scratch_subdir>  (108) 
/opt/xchem-fragalysis-2/maxwin/BulkDock/SCRATCH/511024/C77252-P97

>  <fragmenstein_runtime>  (108) 
7.28870964050293

>  <fragmenstein_outcome>  (108) 
too moved

>  <fragmenstein_mode>  (108) 
expansion

>  <fragmenstein_error>  (108) 


$$$$
C51673-P124
     RDKit          3D

 35 38  0  0  0  0  0  0  0  0999 V2000
   12.7579   -3.5489   16.6524 C   0  0  0  0  0  0  0  0  0  0  0  0
   12.1858   -2.9508   15.5163 C   0  0  0  0  0  0  0  0  0  0  0  0
   12.9152   -1.9286   14.9016 C   0  0  0  0  0  0  0  0  0  0  0  0
   12.6571   -1.1894   13.7546 N   0  0  0  0  0  0  0  0  0  0  0  0
   13.7419   -0.4110   13.5117 C   0  0  0  0  0  0  0  0  0  0  0  0
   14.6184   -0.5123   14.5472 C   0  0  0  0  0  0  0  0  0  0  0  0
   14.1443   -1.4898   15.4113 C   0  0  0  0  0  0  0  0  0  0  0  0
   14.6595   -2.0615   16.5708 C   0  0  0  0  0  0  0  0  0  0  0  0
   13.9707   -3.1016   17.2024 C   0  0  0  0  0  0  0  0  0  0  0  0
   14.5902   -3.7499   18.4205 C   0  0  0  0  0  0  0  0  0  0  0  0
   14.9440   -2.7842   19.5626 C   0  0  0  0  0  0  0  0  0  0  0  0
   16.3913   -3.0946   19.9013 C   0  0  0  0  0  0  0  0  0  0  0  0
   16.9517   -3.6245   18.6009 C   0  0  0  0  0  0  0  0  0  0  0  0
   15.8552   -4.4209   18.0616 N   0  0  0  0  0  0  0  0  0  0  0  0
   15.8059    0.3376   14.3695 C   0  0  0  0  0  0  0  0  0  0  0  0
   15.7139    0.6657   12.8504 C   0  0  0  0  0  0  0  0  0  0  0  0
   14.2139    0.4628   12.4263 C   0  0  0  0  0  0  0  0  0  0  0  0
   12.2383   -4.3889   17.1076 H   0  0  0  0  0  0  0  0  0  0  0  0
   11.2485   -3.3089   15.1032 H   0  0  0  0  0  0  0  0  0  0  0  0
   11.8181   -1.2793   13.1977 H   0  0  0  0  0  0  0  0  0  0  0  0
   15.6076   -1.6966   16.9481 H   0  0  0  0  0  0  0  0  0  0  0  0
   13.8937   -4.4923   18.8227 H   0  0  0  0  0  0  0  0  0  0  0  0
   14.3063   -2.9470   20.4381 H   0  0  0  0  0  0  0  0  0  0  0  0
   14.8452   -1.7308   19.2775 H   0  0  0  0  0  0  0  0  0  0  0  0
   16.9301   -2.2144   20.2638 H   0  0  0  0  0  0  0  0  0  0  0  0
   16.4357   -3.8662   20.6799 H   0  0  0  0  0  0  0  0  0  0  0  0
   17.2266   -2.8075   17.9268 H   0  0  0  0  0  0  0  0  0  0  0  0
   17.8420   -4.2388   18.7640 H   0  0  0  0  0  0  0  0  0  0  0  0
   15.9453   -4.4715   17.0463 H   0  0  0  0  0  0  0  0  0  0  0  0
   16.7428   -0.1720   14.6099 H   0  0  0  0  0  0  0  0  0  0  0  0
   15.7228    1.2511   14.9673 H   0  0  0  0  0  0  0  0  0  0  0  0
   16.3373   -0.0450   12.2912 H   0  0  0  0  0  0  0  0  0  0  0  0
   16.0751    1.6724   12.6180 H   0  0  0  0  0  0  0  0  0  0  0  0
   13.6807    1.4185   12.4307 H   0  0  0  0  0  0  0  0  0  0  0  0
   14.1439    0.0033   11.4375 H   0  0  0  0  0  0  0  0  0  0  0  0
  1  2  2  0
  2  3  1  0
  3  4  1  0
  4  5  1  0
  5  6  2  0
  6  7  1  0
  7  8  1  0
  8  9  2  0
  9 10  1  0
 10 11  1  0
 11 12  1  0
 12 13  1  0
 13 14  1  0
  6 15  1  0
 15 16  1  0
 16 17  1  0
  9  1  1  0
 14 10  1  0
  7  3  2  0
 17  5  1  0
  1 18  1  0
  2 19  1  0
  4 20  1  0
  8 21  1  0
 10 22  1  0
 11 23  1  0
 11 24  1  0
 12 25  1  0
 12 26  1  0
 13 27  1  0
 13 28  1  0
 14 29  1  0
 15 30  1  0
 15 31  1  0
 16 32  1  0
 16 33  1  0
 17 34  1  0
 17 35  1  0
M  END
>  <Energy>  (109) 
42.371239570014552

>  <compound_id>  (109) 
51673

>  <target_id>  (109) 
1

>  <reference_id>  (109) 
124

>  <inspiration_ids>  (109) 
[124, 97]

>  <energy_score>  (109) 
-17.937012542110878

>  <distance_score>  (109) 
1.897035883951466

>  <path>  (109) 
/opt/xchem-fragalysis-2/maxwin/BulkDock/SCRATCH/511024/C51673-P124/C51673-P124.minimised.mol

>  <scratch_subdir>  (109) 
/opt/xchem-fragalysis-2/maxwin/BulkDock/SCRATCH/511024/C51673-P124

>  <fragmenstein_runtime>  (109) 
1.4722249507904053

>  <fragmenstein_outcome>  (109) 
too moved

>  <fragmenstein_mode>  (109) 
expansion

>  <fragmenstein_error>  (109) 


$$$$
C51673-P97
     RDKit          3D

 35 38  0  0  0  0  0  0  0  0999 V2000
   12.3888   -3.5820   16.4647 C   0  0  0  0  0  0  0  0  0  0  0  0
   11.9032   -2.8477   15.3751 C   0  0  0  0  0  0  0  0  0  0  0  0
   12.6697   -1.7585   14.9615 C   0  0  0  0  0  0  0  0  0  0  0  0
   12.5432   -0.9515   13.8385 N   0  0  0  0  0  0  0  0  0  0  0  0
   13.6669   -0.1974   13.7503 C   0  0  0  0  0  0  0  0  0  0  0  0
   14.4076   -0.3464   14.8848 C   0  0  0  0  0  0  0  0  0  0  0  0
   13.8195   -1.3522   15.6510 C   0  0  0  0  0  0  0  0  0  0  0  0
   14.2178   -2.0374   16.8008 C   0  0  0  0  0  0  0  0  0  0  0  0
   13.5295   -3.1933   17.1873 C   0  0  0  0  0  0  0  0  0  0  0  0
   14.0713   -4.0989   18.2758 C   0  0  0  0  0  0  0  0  0  0  0  0
   14.8036   -3.4254   19.4393 C   0  0  0  0  0  0  0  0  0  0  0  0
   16.2926   -3.5861   19.1473 C   0  0  0  0  0  0  0  0  0  0  0  0
   16.3695   -4.3206   17.8222 C   0  0  0  0  0  0  0  0  0  0  0  0
   15.0831   -5.0082   17.7168 N   0  0  0  0  0  0  0  0  0  0  0  0
   15.6633    0.4243   14.8349 C   0  0  0  0  0  0  0  0  0  0  0  0
   15.7769    0.7148   13.3064 C   0  0  0  0  0  0  0  0  0  0  0  0
   14.3230    0.6226   12.7164 C   0  0  0  0  0  0  0  0  0  0  0  0
   11.8714   -4.5007   16.7386 H   0  0  0  0  0  0  0  0  0  0  0  0
   11.0335   -3.1772   14.8161 H   0  0  0  0  0  0  0  0  0  0  0  0
   11.7969   -1.0442   13.1624 H   0  0  0  0  0  0  0  0  0  0  0  0
   15.1241   -1.7207   17.3046 H   0  0  0  0  0  0  0  0  0  0  0  0
   13.2396   -4.6832   18.6841 H   0  0  0  0  0  0  0  0  0  0  0  0
   14.5743   -3.9487   20.3765 H   0  0  0  0  0  0  0  0  0  0  0  0
   14.5335   -2.3751   19.5856 H   0  0  0  0  0  0  0  0  0  0  0  0
   16.8016   -2.6182   19.0984 H   0  0  0  0  0  0  0  0  0  0  0  0
   16.7654   -4.1716   19.9445 H   0  0  0  0  0  0  0  0  0  0  0  0
   16.5195   -3.6258   16.9893 H   0  0  0  0  0  0  0  0  0  0  0  0
   17.1976   -5.0356   17.8058 H   0  0  0  0  0  0  0  0  0  0  0  0
   14.8795   -5.1794   16.7296 H   0  0  0  0  0  0  0  0  0  0  0  0
   16.5296   -0.1353   15.1975 H   0  0  0  0  0  0  0  0  0  0  0  0
   15.5677    1.3578   15.3989 H   0  0  0  0  0  0  0  0  0  0  0  0
   16.3974   -0.0616   12.8389 H   0  0  0  0  0  0  0  0  0  0  0  0
   16.2460    1.6816   13.0990 H   0  0  0  0  0  0  0  0  0  0  0  0
   13.8685    1.6163   12.6577 H   0  0  0  0  0  0  0  0  0  0  0  0
   14.3248    0.1556   11.7281 H   0  0  0  0  0  0  0  0  0  0  0  0
  1  2  2  0
  2  3  1  0
  3  4  1  0
  4  5  1  0
  5  6  2  0
  6  7  1  0
  7  8  1  0
  8  9  2  0
  9 10  1  0
 10 11  1  0
 11 12  1  0
 12 13  1  0
 13 14  1  0
  6 15  1  0
 15 16  1  0
 16 17  1  0
  9  1  1  0
 14 10  1  0
  7  3  2  0
 17  5  1  0
  1 18  1  0
  2 19  1  0
  4 20  1  0
  8 21  1  0
 10 22  1  0
 11 23  1  0
 11 24  1  0
 12 25  1  0
 12 26  1  0
 13 27  1  0
 13 28  1  0
 14 29  1  0
 15 30  1  0
 15 31  1  0
 16 32  1  0
 16 33  1  0
 17 34  1  0
 17 35  1  0
M  END
>  <Energy>  (110) 
43.631093206210615

>  <compound_id>  (110) 
51673

>  <target_id>  (110) 
1

>  <reference_id>  (110) 
97

>  <inspiration_ids>  (110) 
[124, 97]

>  <energy_score>  (110) 
-16.67715890591532

>  <distance_score>  (110) 
1.6918553248368462

>  <path>  (110) 
/opt/xchem-fragalysis-2/maxwin/BulkDock/SCRATCH/511024/C51673-P97/C51673-P97.minimised.mol

>  <scratch_subdir>  (110) 
/opt/xchem-fragalysis-2/maxwin/BulkDock/SCRATCH/511024/C51673-P97

>  <fragmenstein_runtime>  (110) 
1.3560523986816406

>  <fragmenstein_outcome>  (110) 
too moved

>  <fragmenstein_mode>  (110) 
expansion

>  <fragmenstein_error>  (110) 


$$$$
C51674-P124
     RDKit          3D

 38 41  0  0  0  0  0  0  0  0999 V2000
   12.7488   -3.5751   16.7368 C   0  0  0  0  0  0  0  0  0  0  0  0
   12.2266   -3.0105   15.5622 C   0  0  0  0  0  0  0  0  0  0  0  0
   13.0039   -2.0329   14.9374 C   0  0  0  0  0  0  0  0  0  0  0  0
   12.8576   -1.4031   13.7198 N   0  0  0  0  0  0  0  0  0  0  0  0
   14.0166   -0.7305   13.4286 C   0  0  0  0  0  0  0  0  0  0  0  0
   14.7724   -0.6624   14.5755 C   0  0  0  0  0  0  0  0  0  0  0  0
   14.1913   -1.5595   15.4894 C   0  0  0  0  0  0  0  0  0  0  0  0
   14.6304   -2.0660   16.7131 C   0  0  0  0  0  0  0  0  0  0  0  0
   13.9325   -3.1081   17.3301 C   0  0  0  0  0  0  0  0  0  0  0  0
   14.5208   -3.7533   18.5667 C   0  0  0  0  0  0  0  0  0  0  0  0
   14.8699   -2.7877   19.7100 C   0  0  0  0  0  0  0  0  0  0  0  0
   16.3233   -3.0770   20.0440 C   0  0  0  0  0  0  0  0  0  0  0  0
   16.8828   -3.6312   18.7539 C   0  0  0  0  0  0  0  0  0  0  0  0
   15.7855   -4.4393   18.2346 N   0  0  0  0  0  0  0  0  0  0  0  0
   16.0743    0.0494   14.6525 C   0  0  0  0  0  0  0  0  0  0  0  0
   16.7445    0.0422   13.2760 C   0  0  0  0  0  0  0  0  0  0  0  0
   15.7744    0.5299   12.1872 C   0  0  0  0  0  0  0  0  0  0  0  0
   14.4753   -0.2970   12.0847 C   0  0  0  0  0  0  0  0  0  0  0  0
   12.2145   -4.4085   17.1853 H   0  0  0  0  0  0  0  0  0  0  0  0
   11.3142   -3.3888   15.1129 H   0  0  0  0  0  0  0  0  0  0  0  0
   12.0942   -1.5875   13.0861 H   0  0  0  0  0  0  0  0  0  0  0  0
   15.5558   -1.6854   17.1284 H   0  0  0  0  0  0  0  0  0  0  0  0
   13.8103   -4.4905   18.9562 H   0  0  0  0  0  0  0  0  0  0  0  0
   14.2410   -2.9663   20.5886 H   0  0  0  0  0  0  0  0  0  0  0  0
   14.7527   -1.7346   19.4315 H   0  0  0  0  0  0  0  0  0  0  0  0
   16.3801   -3.8299   20.8399 H   0  0  0  0  0  0  0  0  0  0  0  0
   16.8559   -2.1838   20.3835 H   0  0  0  0  0  0  0  0  0  0  0  0
   17.7733   -4.2421   18.9287 H   0  0  0  0  0  0  0  0  0  0  0  0
   17.1582   -2.8290   18.0628 H   0  0  0  0  0  0  0  0  0  0  0  0
   15.8791   -4.5158   17.2218 H   0  0  0  0  0  0  0  0  0  0  0  0
   16.7434   -0.4177   15.3829 H   0  0  0  0  0  0  0  0  0  0  0  0
   15.9004    1.0815   14.9794 H   0  0  0  0  0  0  0  0  0  0  0  0
   17.0814   -0.9726   13.0282 H   0  0  0  0  0  0  0  0  0  0  0  0
   17.6336    0.6824   13.2954 H   0  0  0  0  0  0  0  0  0  0  0  0
   16.2772    0.5359   11.2132 H   0  0  0  0  0  0  0  0  0  0  0  0
   15.5088    1.5731   12.4054 H   0  0  0  0  0  0  0  0  0  0  0  0
   14.6636   -1.1861   11.4709 H   0  0  0  0  0  0  0  0  0  0  0  0
   13.7050    0.2968   11.5823 H   0  0  0  0  0  0  0  0  0  0  0  0
  1  2  2  0
  2  3  1  0
  3  4  1  0
  4  5  1  0
  5  6  2  0
  6  7  1  0
  7  8  1  0
  8  9  2  0
  9 10  1  0
 10 11  1  0
 11 12  1  0
 12 13  1  0
 13 14  1  0
  6 15  1  0
 15 16  1  0
 16 17  1  0
 17 18  1  0
  9  1  1  0
 14 10  1  0
  7  3  2  0
 18  5  1  0
  1 19  1  0
  2 20  1  0
  4 21  1  0
  8 22  1  0
 10 23  1  0
 11 24  1  0
 11 25  1  0
 12 26  1  0
 12 27  1  0
 13 28  1  0
 13 29  1  0
 14 30  1  0
 15 31  1  0
 15 32  1  0
 16 33  1  0
 16 34  1  0
 17 35  1  0
 17 36  1  0
 18 37  1  0
 18 38  1  0
M  END
>  <Energy>  (111) 
29.047838518938736

>  <compound_id>  (111) 
51674

>  <target_id>  (111) 
1

>  <reference_id>  (111) 
124

>  <inspiration_ids>  (111) 
[124, 97]

>  <energy_score>  (111) 
-25.21331968947584

>  <distance_score>  (111) 
2.273549569028659

>  <path>  (111) 
/opt/xchem-fragalysis-2/maxwin/BulkDock/SCRATCH/511024/C51674-P124/C51674-P124.minimised.mol

>  <scratch_subdir>  (111) 
/opt/xchem-fragalysis-2/maxwin/BulkDock/SCRATCH/511024/C51674-P124

>  <fragmenstein_runtime>  (111) 
1.9216978549957275

>  <fragmenstein_outcome>  (111) 
too moved

>  <fragmenstein_mode>  (111) 
expansion

>  <fragmenstein_error>  (111) 


$$$$
C51674-P97
     RDKit          3D

 38 41  0  0  0  0  0  0  0  0999 V2000
   12.3862   -3.6315   16.5394 C   0  0  0  0  0  0  0  0  0  0  0  0
   11.9316   -2.9482   15.4077 C   0  0  0  0  0  0  0  0  0  0  0  0
   12.7428   -1.9142   14.9481 C   0  0  0  0  0  0  0  0  0  0  0  0
   12.7052   -1.2239   13.7567 N   0  0  0  0  0  0  0  0  0  0  0  0
   13.9046   -0.5834   13.5888 C   0  0  0  0  0  0  0  0  0  0  0  0
   14.5456   -0.5513   14.8084 C   0  0  0  0  0  0  0  0  0  0  0  0
   13.8617   -1.4647   15.6433 C   0  0  0  0  0  0  0  0  0  0  0  0
   14.1958   -2.0617   16.8640 C   0  0  0  0  0  0  0  0  0  0  0  0
   13.5068   -3.2097   17.2732 C   0  0  0  0  0  0  0  0  0  0  0  0
   14.0415   -4.0884   18.3876 C   0  0  0  0  0  0  0  0  0  0  0  0
   14.7697   -3.3907   19.5393 C   0  0  0  0  0  0  0  0  0  0  0  0
   16.2597   -3.5648   19.2615 C   0  0  0  0  0  0  0  0  0  0  0  0
   16.3422   -4.3204   17.9492 C   0  0  0  0  0  0  0  0  0  0  0  0
   15.0560   -5.0113   17.8498 N   0  0  0  0  0  0  0  0  0  0  0  0
   15.8711    0.0966   15.0026 C   0  0  0  0  0  0  0  0  0  0  0  0
   16.6703    0.0376   13.6945 C   0  0  0  0  0  0  0  0  0  0  0  0
   15.8404    0.5662   12.5119 C   0  0  0  0  0  0  0  0  0  0  0  0
   14.5128   -0.1876   12.2905 C   0  0  0  0  0  0  0  0  0  0  0  0
   11.8630   -4.5394   16.8354 H   0  0  0  0  0  0  0  0  0  0  0  0
   11.0787   -3.3031   14.8389 H   0  0  0  0  0  0  0  0  0  0  0  0
   12.0104   -1.4011   13.0468 H   0  0  0  0  0  0  0  0  0  0  0  0
   15.0859   -1.7247   17.3828 H   0  0  0  0  0  0  0  0  0  0  0  0
   13.2087   -4.6651   18.8041 H   0  0  0  0  0  0  0  0  0  0  0  0
   14.5317   -3.8898   20.4874 H   0  0  0  0  0  0  0  0  0  0  0  0
   14.5046   -2.3359   19.6586 H   0  0  0  0  0  0  0  0  0  0  0  0
   16.7226   -4.1407   20.0714 H   0  0  0  0  0  0  0  0  0  0  0  0
   16.7752   -2.6008   19.2016 H   0  0  0  0  0  0  0  0  0  0  0  0
   17.1708   -5.0350   17.9473 H   0  0  0  0  0  0  0  0  0  0  0  0
   16.4948   -3.6389   17.1058 H   0  0  0  0  0  0  0  0  0  0  0  0
   14.8599   -5.1887   16.8618 H   0  0  0  0  0  0  0  0  0  0  0  0
   16.4424   -0.3929   15.7984 H   0  0  0  0  0  0  0  0  0  0  0  0
   15.7193    1.1406   15.3015 H   0  0  0  0  0  0  0  0  0  0  0  0
   16.9722   -0.9971   13.4872 H   0  0  0  0  0  0  0  0  0  0  0  0
   17.5875    0.6281   13.7973 H   0  0  0  0  0  0  0  0  0  0  0  0
   16.4350    0.5318   11.5917 H   0  0  0  0  0  0  0  0  0  0  0  0
   15.6148    1.6251   12.6965 H   0  0  0  0  0  0  0  0  0  0  0  0
   14.7091   -1.0932   11.7033 H   0  0  0  0  0  0  0  0  0  0  0  0
   13.8243    0.4374   11.7117 H   0  0  0  0  0  0  0  0  0  0  0  0
  1  2  2  0
  2  3  1  0
  3  4  1  0
  4  5  1  0
  5  6  2  0
  6  7  1  0
  7  8  1  0
  8  9  2  0
  9 10  1  0
 10 11  1  0
 11 12  1  0
 12 13  1  0
 13 14  1  0
  6 15  1  0
 15 16  1  0
 16 17  1  0
 17 18  1  0
  9  1  1  0
 14 10  1  0
  7  3  2  0
 18  5  1  0
  1 19  1  0
  2 20  1  0
  4 21  1  0
  8 22  1  0
 10 23  1  0
 11 24  1  0
 11 25  1  0
 12 26  1  0
 12 27  1  0
 13 28  1  0
 13 29  1  0
 14 30  1  0
 15 31  1  0
 15 32  1  0
 16 33  1  0
 16 34  1  0
 17 35  1  0
 17 36  1  0
 18 37  1  0
 18 38  1  0
M  END
>  <Energy>  (112) 
31.52131033798538

>  <compound_id>  (112) 
51674

>  <target_id>  (112) 
1

>  <reference_id>  (112) 
97

>  <inspiration_ids>  (112) 
[124, 97]

>  <energy_score>  (112) 
-22.739847870428605

>  <distance_score>  (112) 
2.08160651746223

>  <path>  (112) 
/opt/xchem-fragalysis-2/maxwin/BulkDock/SCRATCH/511024/C51674-P97/C51674-P97.minimised.mol

>  <scratch_subdir>  (112) 
/opt/xchem-fragalysis-2/maxwin/BulkDock/SCRATCH/511024/C51674-P97

>  <fragmenstein_runtime>  (112) 
1.476513147354126

>  <fragmenstein_outcome>  (112) 
too moved

>  <fragmenstein_mode>  (112) 
expansion

>  <fragmenstein_error>  (112) 


$$$$
C51675-P124
     RDKit          3D

 35 38  0  0  0  0  0  0  0  0999 V2000
   12.8652   -3.6096   16.7860 C   0  0  0  0  0  0  0  0  0  0  0  0
   12.2633   -3.0393   15.6461 C   0  0  0  0  0  0  0  0  0  0  0  0
   12.9748   -2.0353   14.9807 C   0  0  0  0  0  0  0  0  0  0  0  0
   12.6797   -1.3069   13.8329 N   0  0  0  0  0  0  0  0  0  0  0  0
   13.7513   -0.5197   13.5570 C   0  0  0  0  0  0  0  0  0  0  0  0
   14.6691   -0.6295   14.5552 C   0  0  0  0  0  0  0  0  0  0  0  0
   14.2306   -1.6100   15.4348 C   0  0  0  0  0  0  0  0  0  0  0  0
   14.7934   -2.1840   16.5738 C   0  0  0  0  0  0  0  0  0  0  0  0
   14.1069   -3.1760   17.2789 C   0  0  0  0  0  0  0  0  0  0  0  0
   14.7103   -3.7171   18.5676 C   0  0  0  0  0  0  0  0  0  0  0  0
   16.0578   -4.4313   18.3480 C   0  0  0  0  0  0  0  0  0  0  0  0
   17.1194   -3.5844   19.0370 C   0  0  0  0  0  0  0  0  0  0  0  0
   16.4846   -2.2945   19.2634 N   0  0  0  0  0  0  0  0  0  0  0  0
   15.0843   -2.6087   19.5684 C   0  0  0  0  0  0  0  0  0  0  0  0
   15.8439    0.2302   14.3452 C   0  0  0  0  0  0  0  0  0  0  0  0
   15.6873    0.5891   12.8390 C   0  0  0  0  0  0  0  0  0  0  0  0
   14.1752    0.3740   12.4680 C   0  0  0  0  0  0  0  0  0  0  0  0
   12.3325   -4.4047   17.2996 H   0  0  0  0  0  0  0  0  0  0  0  0
   11.3030   -3.3906   15.2840 H   0  0  0  0  0  0  0  0  0  0  0  0
   11.8259   -1.3983   13.2975 H   0  0  0  0  0  0  0  0  0  0  0  0
   15.7682   -1.8319   16.8968 H   0  0  0  0  0  0  0  0  0  0  0  0
   13.9890   -4.3941   19.0402 H   0  0  0  0  0  0  0  0  0  0  0  0
   16.2960   -4.5623   17.2866 H   0  0  0  0  0  0  0  0  0  0  0  0
   16.0481   -5.4209   18.8177 H   0  0  0  0  0  0  0  0  0  0  0  0
   18.0208   -3.4840   18.4255 H   0  0  0  0  0  0  0  0  0  0  0  0
   17.4061   -4.0394   19.9926 H   0  0  0  0  0  0  0  0  0  0  0  0
   16.9208   -1.8070   20.0443 H   0  0  0  0  0  0  0  0  0  0  0  0
   14.4658   -1.7112   19.4927 H   0  0  0  0  0  0  0  0  0  0  0  0
   15.0110   -2.9894   20.5949 H   0  0  0  0  0  0  0  0  0  0  0  0
   15.7820    1.1308   14.9648 H   0  0  0  0  0  0  0  0  0  0  0  0
   16.7922   -0.2792   14.5358 H   0  0  0  0  0  0  0  0  0  0  0  0
   16.0255    1.6056   12.6147 H   0  0  0  0  0  0  0  0  0  0  0  0
   16.2982   -0.1000   12.2403 H   0  0  0  0  0  0  0  0  0  0  0  0
   13.6319    1.3233   12.5040 H   0  0  0  0  0  0  0  0  0  0  0  0
   14.0754   -0.0731   11.4761 H   0  0  0  0  0  0  0  0  0  0  0  0
  1  2  2  0
  2  3  1  0
  3  4  1  0
  4  5  1  0
  5  6  2  0
  6  7  1  0
  7  8  1  0
  8  9  2  0
  9 10  1  0
 10 11  1  0
 11 12  1  0
 12 13  1  0
 13 14  1  0
  6 15  1  0
 15 16  1  0
 16 17  1  0
  9  1  1  0
 14 10  1  0
  7  3  2  0
 17  5  1  0
  1 18  1  0
  2 19  1  0
  4 20  1  0
  8 21  1  0
 10 22  1  0
 11 23  1  0
 11 24  1  0
 12 25  1  0
 12 26  1  0
 13 27  1  0
 14 28  1  0
 14 29  1  0
 15 30  1  0
 15 31  1  0
 16 32  1  0
 16 33  1  0
 17 34  1  0
 17 35  1  0
M  END
>  <Energy>  (113) 
60.14801582066827

>  <compound_id>  (113) 
51675

>  <target_id>  (113) 
1

>  <reference_id>  (113) 
124

>  <inspiration_ids>  (113) 
[124, 97]

>  <energy_score>  (113) 
-14.556761506303857

>  <distance_score>  (113) 
2.471645256648448

>  <path>  (113) 
/opt/xchem-fragalysis-2/maxwin/BulkDock/SCRATCH/511024/C51675-P124/C51675-P124.minimised.mol

>  <scratch_subdir>  (113) 
/opt/xchem-fragalysis-2/maxwin/BulkDock/SCRATCH/511024/C51675-P124

>  <fragmenstein_runtime>  (113) 
1.5168712139129639

>  <fragmenstein_outcome>  (113) 
too moved

>  <fragmenstein_mode>  (113) 
expansion

>  <fragmenstein_error>  (113) 


$$$$
C51675-P97
     RDKit          3D

 35 38  0  0  0  0  0  0  0  0999 V2000
   12.5828   -3.6556   16.5980 C   0  0  0  0  0  0  0  0  0  0  0  0
   12.0054   -2.9679   15.5149 C   0  0  0  0  0  0  0  0  0  0  0  0
   12.7164   -1.8829   14.9975 C   0  0  0  0  0  0  0  0  0  0  0  0
   12.4896   -1.1042   13.8676 N   0  0  0  0  0  0  0  0  0  0  0  0
   13.5805   -0.3143   13.6903 C   0  0  0  0  0  0  0  0  0  0  0  0
   14.4107   -0.4339   14.7637 C   0  0  0  0  0  0  0  0  0  0  0  0
   13.9144   -1.4488   15.5768 C   0  0  0  0  0  0  0  0  0  0  0  0
   14.4250   -2.1080   16.6958 C   0  0  0  0  0  0  0  0  0  0  0  0
   13.7810   -3.2414   17.2015 C   0  0  0  0  0  0  0  0  0  0  0  0
   14.4099   -4.0438   18.3293 C   0  0  0  0  0  0  0  0  0  0  0  0
   15.6059   -4.8691   17.8437 C   0  0  0  0  0  0  0  0  0  0  0  0
   16.8547   -4.0719   18.1999 C   0  0  0  0  0  0  0  0  0  0  0  0
   16.4125   -2.9231   18.9836 N   0  0  0  0  0  0  0  0  0  0  0  0
   15.0518   -3.2186   19.4515 C   0  0  0  0  0  0  0  0  0  0  0  0
   15.6318    0.3787   14.6267 C   0  0  0  0  0  0  0  0  0  0  0  0
   15.6200    0.6786   13.0978 C   0  0  0  0  0  0  0  0  0  0  0  0
   14.1312    0.5286   12.6145 C   0  0  0  0  0  0  0  0  0  0  0  0
   12.0819   -4.5516   16.9582 H   0  0  0  0  0  0  0  0  0  0  0  0
   11.0935   -3.3238   15.0469 H   0  0  0  0  0  0  0  0  0  0  0  0
   11.6968   -1.2226   13.2484 H   0  0  0  0  0  0  0  0  0  0  0  0
   15.3699   -1.7611   17.0989 H   0  0  0  0  0  0  0  0  0  0  0  0
   13.6416   -4.6987   18.7582 H   0  0  0  0  0  0  0  0  0  0  0  0
   15.5672   -5.1097   16.7762 H   0  0  0  0  0  0  0  0  0  0  0  0
   15.6427   -5.8102   18.4055 H   0  0  0  0  0  0  0  0  0  0  0  0
   17.3751   -3.7288   17.3002 H   0  0  0  0  0  0  0  0  0  0  0  0
   17.5521   -4.6918   18.7743 H   0  0  0  0  0  0  0  0  0  0  0  0
   17.0358   -2.7499   19.7701 H   0  0  0  0  0  0  0  0  0  0  0  0
   14.5085   -2.2992   19.6853 H   0  0  0  0  0  0  0  0  0  0  0  0
   15.1123   -3.8211   20.3664 H   0  0  0  0  0  0  0  0  0  0  0  0
   15.5474    1.3059   15.2027 H   0  0  0  0  0  0  0  0  0  0  0  0
   16.5413   -0.1524   14.9199 H   0  0  0  0  0  0  0  0  0  0  0  0
   16.0326    1.6645   12.8623 H   0  0  0  0  0  0  0  0  0  0  0  0
   16.2356   -0.0696   12.5804 H   0  0  0  0  0  0  0  0  0  0  0  0
   13.6359    1.5040   12.5884 H   0  0  0  0  0  0  0  0  0  0  0  0
   14.0830    0.0611   11.6279 H   0  0  0  0  0  0  0  0  0  0  0  0
  1  2  2  0
  2  3  1  0
  3  4  1  0
  4  5  1  0
  5  6  2  0
  6  7  1  0
  7  8  1  0
  8  9  2  0
  9 10  1  0
 10 11  1  0
 11 12  1  0
 12 13  1  0
 13 14  1  0
  6 15  1  0
 15 16  1  0
 16 17  1  0
  9  1  1  0
 14 10  1  0
  7  3  2  0
 17  5  1  0
  1 18  1  0
  2 19  1  0
  4 20  1  0
  8 21  1  0
 10 22  1  0
 11 23  1  0
 11 24  1  0
 12 25  1  0
 12 26  1  0
 13 27  1  0
 14 28  1  0
 14 29  1  0
 15 30  1  0
 15 31  1  0
 16 32  1  0
 16 33  1  0
 17 34  1  0
 17 35  1  0
M  END
>  <Energy>  (114) 
61.844506338441683

>  <compound_id>  (114) 
51675

>  <target_id>  (114) 
1

>  <reference_id>  (114) 
97

>  <inspiration_ids>  (114) 
[124, 97]

>  <energy_score>  (114) 
-12.86027098852989

>  <distance_score>  (114) 
2.22110750252556

>  <path>  (114) 
/opt/xchem-fragalysis-2/maxwin/BulkDock/SCRATCH/511024/C51675-P97/C51675-P97.minimised.mol

>  <scratch_subdir>  (114) 
/opt/xchem-fragalysis-2/maxwin/BulkDock/SCRATCH/511024/C51675-P97

>  <fragmenstein_runtime>  (114) 
1.4238178730010986

>  <fragmenstein_outcome>  (114) 
too moved

>  <fragmenstein_mode>  (114) 
expansion

>  <fragmenstein_error>  (114) 


$$$$
C51676-P124
     RDKit          3D

 38 41  0  0  0  0  0  0  0  0999 V2000
   12.8750   -3.5731   16.7682 C   0  0  0  0  0  0  0  0  0  0  0  0
   12.2895   -3.0245   15.6113 C   0  0  0  0  0  0  0  0  0  0  0  0
   13.0168   -2.0324   14.9471 C   0  0  0  0  0  0  0  0  0  0  0  0
   12.8194   -1.4123   13.7301 N   0  0  0  0  0  0  0  0  0  0  0  0
   13.9553   -0.7136   13.4014 C   0  0  0  0  0  0  0  0  0  0  0  0
   14.7392   -0.6170   14.5260 C   0  0  0  0  0  0  0  0  0  0  0  0
   14.2091   -1.5273   15.4549 C   0  0  0  0  0  0  0  0  0  0  0  0
   14.7114   -2.0246   16.6555 C   0  0  0  0  0  0  0  0  0  0  0  0
   14.0813   -3.0880   17.3002 C   0  0  0  0  0  0  0  0  0  0  0  0
   14.7462   -3.7162   18.5107 C   0  0  0  0  0  0  0  0  0  0  0  0
   16.0575   -4.4154   18.1433 C   0  0  0  0  0  0  0  0  0  0  0  0
   17.1595   -3.4063   18.3783 C   0  0  0  0  0  0  0  0  0  0  0  0
   16.6353   -2.4202   19.3193 N   0  0  0  0  0  0  0  0  0  0  0  0
   15.2179   -2.7187   19.5751 C   0  0  0  0  0  0  0  0  0  0  0  0
   16.0300    0.1183   14.5631 C   0  0  0  0  0  0  0  0  0  0  0  0
   16.6745    0.0831   13.1759 C   0  0  0  0  0  0  0  0  0  0  0  0
   15.6787    0.5420   12.0988 C   0  0  0  0  0  0  0  0  0  0  0  0
   14.3770   -0.2866   12.0431 C   0  0  0  0  0  0  0  0  0  0  0  0
   12.3721   -4.4092   17.2472 H   0  0  0  0  0  0  0  0  0  0  0  0
   11.3679   -3.4259   15.2032 H   0  0  0  0  0  0  0  0  0  0  0  0
   12.0441   -1.6191   13.1173 H   0  0  0  0  0  0  0  0  0  0  0  0
   15.6431   -1.6101   17.0135 H   0  0  0  0  0  0  0  0  0  0  0  0
   14.0432   -4.4210   18.9688 H   0  0  0  0  0  0  0  0  0  0  0  0
   16.2117   -5.2727   18.8101 H   0  0  0  0  0  0  0  0  0  0  0  0
   16.0996   -4.7583   17.1071 H   0  0  0  0  0  0  0  0  0  0  0  0
   17.4512   -2.9196   17.4412 H   0  0  0  0  0  0  0  0  0  0  0  0
   18.0569   -3.8858   18.7824 H   0  0  0  0  0  0  0  0  0  0  0  0
   16.7392   -1.4803   18.9421 H   0  0  0  0  0  0  0  0  0  0  0  0
   14.6216   -1.8015   19.6119 H   0  0  0  0  0  0  0  0  0  0  0  0
   15.1548   -3.1873   20.5645 H   0  0  0  0  0  0  0  0  0  0  0  0
   15.8443    1.1558   14.8654 H   0  0  0  0  0  0  0  0  0  0  0  0
   16.7207   -0.3170   15.2929 H   0  0  0  0  0  0  0  0  0  0  0  0
   17.5594    0.7292   13.1632 H   0  0  0  0  0  0  0  0  0  0  0  0
   17.0125   -0.9349   12.9434 H   0  0  0  0  0  0  0  0  0  0  0  0
   16.1592    0.5270   11.1136 H   0  0  0  0  0  0  0  0  0  0  0  0
   15.4162    1.5897   12.2983 H   0  0  0  0  0  0  0  0  0  0  0  0
   13.5941    0.3077   11.5619 H   0  0  0  0  0  0  0  0  0  0  0  0
   14.5469   -1.1785   11.4281 H   0  0  0  0  0  0  0  0  0  0  0  0
  1  2  2  0
  2  3  1  0
  3  4  1  0
  4  5  1  0
  5  6  2  0
  6  7  1  0
  7  8  1  0
  8  9  2  0
  9 10  1  0
 10 11  1  0
 11 12  1  0
 12 13  1  0
 13 14  1  0
  6 15  1  0
 15 16  1  0
 16 17  1  0
 17 18  1  0
  9  1  1  0
 14 10  1  0
  7  3  2  0
 18  5  1  0
  1 19  1  0
  2 20  1  0
  4 21  1  0
  8 22  1  0
 10 23  1  0
 11 24  1  0
 11 25  1  0
 12 26  1  0
 12 27  1  0
 13 28  1  0
 14 29  1  0
 14 30  1  0
 15 31  1  0
 15 32  1  0
 16 33  1  0
 16 34  1  0
 17 35  1  0
 17 36  1  0
 18 37  1  0
 18 38  1  0
M  END
>  <Energy>  (115) 
49.452507255142613

>  <compound_id>  (115) 
51676

>  <target_id>  (115) 
1

>  <reference_id>  (115) 
124

>  <inspiration_ids>  (115) 
[124, 97]

>  <energy_score>  (115) 
-21.97339712490114

>  <distance_score>  (115) 
2.21477739250925

>  <path>  (115) 
/opt/xchem-fragalysis-2/maxwin/BulkDock/SCRATCH/511024/C51676-P124/C51676-P124.minimised.mol

>  <scratch_subdir>  (115) 
/opt/xchem-fragalysis-2/maxwin/BulkDock/SCRATCH/511024/C51676-P124

>  <fragmenstein_runtime>  (115) 
1.5767676830291748

>  <fragmenstein_outcome>  (115) 
too moved

>  <fragmenstein_mode>  (115) 
expansion

>  <fragmenstein_error>  (115) 


$$$$
C51676-P97
     RDKit          3D

 38 41  0  0  0  0  0  0  0  0999 V2000
   12.5618   -3.6296   16.6086 C   0  0  0  0  0  0  0  0  0  0  0  0
   12.0060   -2.9832   15.4945 C   0  0  0  0  0  0  0  0  0  0  0  0
   12.7372   -1.9172   14.9705 C   0  0  0  0  0  0  0  0  0  0  0  0
   12.6266   -1.2607   13.7625 N   0  0  0  0  0  0  0  0  0  0  0  0
   13.7947   -0.5748   13.5360 C   0  0  0  0  0  0  0  0  0  0  0  0
   14.4639   -0.4652   14.7347 C   0  0  0  0  0  0  0  0  0  0  0  0
   13.8532   -1.3896   15.6100 C   0  0  0  0  0  0  0  0  0  0  0  0
   14.2771   -1.9457   16.8179 C   0  0  0  0  0  0  0  0  0  0  0  0
   13.7068   -3.1442   17.2584 C   0  0  0  0  0  0  0  0  0  0  0  0
   14.4135   -3.9842   18.3100 C   0  0  0  0  0  0  0  0  0  0  0  0
   15.4917   -4.8482   17.6525 C   0  0  0  0  0  0  0  0  0  0  0  0
   16.7280   -3.9737   17.6310 C   0  0  0  0  0  0  0  0  0  0  0  0
   16.6364   -3.1525   18.8388 N   0  0  0  0  0  0  0  0  0  0  0  0
   15.2485   -3.2087   19.3382 C   0  0  0  0  0  0  0  0  0  0  0  0
   15.7722    0.2323   14.8676 C   0  0  0  0  0  0  0  0  0  0  0  0
   16.5540    0.0994   13.5557 C   0  0  0  0  0  0  0  0  0  0  0  0
   15.6977    0.5468   12.3592 C   0  0  0  0  0  0  0  0  0  0  0  0
   14.3660   -0.2196   12.2084 C   0  0  0  0  0  0  0  0  0  0  0  0
   12.1073   -4.5606   16.9413 H   0  0  0  0  0  0  0  0  0  0  0  0
   11.1471   -3.3957   14.9755 H   0  0  0  0  0  0  0  0  0  0  0  0
   11.9219   -1.4934   13.0775 H   0  0  0  0  0  0  0  0  0  0  0  0
   15.1683   -1.5373   17.2771 H   0  0  0  0  0  0  0  0  0  0  0  0
   13.6694   -4.6042   18.8242 H   0  0  0  0  0  0  0  0  0  0  0  0
   15.6922   -5.7234   18.2831 H   0  0  0  0  0  0  0  0  0  0  0  0
   15.2343   -5.1883   16.6456 H   0  0  0  0  0  0  0  0  0  0  0  0
   16.7454   -3.3401   16.7379 H   0  0  0  0  0  0  0  0  0  0  0  0
   17.6455   -4.5698   17.6314 H   0  0  0  0  0  0  0  0  0  0  0  0
   16.9116   -2.1937   18.6363 H   0  0  0  0  0  0  0  0  0  0  0  0
   14.8558   -2.2116   19.5631 H   0  0  0  0  0  0  0  0  0  0  0  0
   15.2677   -3.7660   20.2825 H   0  0  0  0  0  0  0  0  0  0  0  0
   15.5941    1.2903   15.0937 H   0  0  0  0  0  0  0  0  0  0  0  0
   16.3682   -0.1821   15.6873 H   0  0  0  0  0  0  0  0  0  0  0  0
   17.4652    0.7058   13.6069 H   0  0  0  0  0  0  0  0  0  0  0  0
   16.8647   -0.9427   13.4071 H   0  0  0  0  0  0  0  0  0  0  0  0
   16.2743    0.4578   11.4312 H   0  0  0  0  0  0  0  0  0  0  0  0
   15.4718    1.6148   12.4808 H   0  0  0  0  0  0  0  0  0  0  0  0
   13.6602    0.3871   11.6316 H   0  0  0  0  0  0  0  0  0  0  0  0
   14.5477   -1.1430   11.6449 H   0  0  0  0  0  0  0  0  0  0  0  0
  1  2  2  0
  2  3  1  0
  3  4  1  0
  4  5  1  0
  5  6  2  0
  6  7  1  0
  7  8  1  0
  8  9  2  0
  9 10  1  0
 10 11  1  0
 11 12  1  0
 12 13  1  0
 13 14  1  0
  6 15  1  0
 15 16  1  0
 16 17  1  0
 17 18  1  0
  9  1  1  0
 14 10  1  0
  7  3  2  0
 18  5  1  0
  1 19  1  0
  2 20  1  0
  4 21  1  0
  8 22  1  0
 10 23  1  0
 11 24  1  0
 11 25  1  0
 12 26  1  0
 12 27  1  0
 13 28  1  0
 14 29  1  0
 14 30  1  0
 15 31  1  0
 15 32  1  0
 16 33  1  0
 16 34  1  0
 17 35  1  0
 17 36  1  0
 18 37  1  0
 18 38  1  0
M  END
>  <Energy>  (116) 
52.850247609853817

>  <compound_id>  (116) 
51676

>  <target_id>  (116) 
1

>  <reference_id>  (116) 
97

>  <inspiration_ids>  (116) 
[124, 97]

>  <energy_score>  (116) 
-18.57565677018937

>  <distance_score>  (116) 
2.0486417698398616

>  <path>  (116) 
/opt/xchem-fragalysis-2/maxwin/BulkDock/SCRATCH/511024/C51676-P97/C51676-P97.minimised.mol

>  <scratch_subdir>  (116) 
/opt/xchem-fragalysis-2/maxwin/BulkDock/SCRATCH/511024/C51676-P97

>  <fragmenstein_runtime>  (116) 
1.2039892673492432

>  <fragmenstein_outcome>  (116) 
too moved

>  <fragmenstein_mode>  (116) 
expansion

>  <fragmenstein_error>  (116) 


$$$$
C51681-P124
     RDKit          3D

 46 49  0  0  0  0  0  0  0  0999 V2000
   16.8491   -5.3659   16.0114 N   0  0  0  0  0  0  0  0  0  0  0  0
   16.8792   -4.3977   16.6510 C   0  0  0  0  0  0  0  0  0  0  0  0
   16.9243   -3.1724   17.4472 C   0  0  0  0  0  0  0  0  0  0  0  0
   16.7628   -1.9771   16.5458 C   0  0  0  0  0  0  0  0  0  0  0  0
   17.6936   -1.1727   16.4300 O   0  0  0  0  0  0  0  0  0  0  0  0
   15.4953   -1.7179   15.7914 C   0  0  0  0  0  0  0  0  0  0  0  0
   14.3376   -2.5016   15.8729 C   0  0  0  0  0  0  0  0  0  0  0  0
   13.1812   -2.1686   15.1473 C   0  0  0  0  0  0  0  0  0  0  0  0
   13.2230   -1.0159   14.3561 C   0  0  0  0  0  0  0  0  0  0  0  0
   12.2472   -0.4142   13.5897 N   0  0  0  0  0  0  0  0  0  0  0  0
   12.7341    0.7531   13.0585 C   0  0  0  0  0  0  0  0  0  0  0  0
   14.0573    0.8763   13.4098 C   0  0  0  0  0  0  0  0  0  0  0  0
   14.3628   -0.2196   14.2523 C   0  0  0  0  0  0  0  0  0  0  0  0
   15.5096   -0.5844   14.9668 C   0  0  0  0  0  0  0  0  0  0  0  0
   14.9043    2.0252   12.9774 C   0  0  0  0  0  0  0  0  0  0  0  0
   14.0388    3.2068   12.5017 C   0  0  0  0  0  0  0  0  0  0  0  0
   12.8817    2.7483   11.5966 C   0  0  0  0  0  0  0  0  0  0  0  0
   11.9399    1.7680   12.3180 C   0  0  0  0  0  0  0  0  0  0  0  0
   15.9538   -3.1804   18.6274 C   0  0  0  0  0  0  0  0  0  0  0  0
   15.2359   -4.1232   18.8368 O   0  0  0  0  0  0  0  0  0  0  0  0
   16.0573   -1.9213   19.3041 N   0  0  0  0  0  0  0  0  0  0  0  0
   15.2372   -1.3361   20.4092 C   0  0  0  0  0  0  0  0  0  0  0  0
   15.9111   -0.1264   21.0073 C   0  0  0  0  0  0  0  0  0  0  0  0
   17.3056   -0.6471   21.0532 C   0  0  0  0  0  0  0  0  0  0  0  0
   17.0846   -2.0025   20.4131 C   0  0  0  0  0  0  0  0  0  0  0  0
   17.9347   -3.1185   17.8744 H   0  0  0  0  0  0  0  0  0  0  0  0
   14.2835   -3.3988   16.4834 H   0  0  0  0  0  0  0  0  0  0  0  0
   12.2870   -2.7824   15.2079 H   0  0  0  0  0  0  0  0  0  0  0  0
   11.2898   -0.7383   13.5112 H   0  0  0  0  0  0  0  0  0  0  0  0
   16.3960    0.0405   14.8888 H   0  0  0  0  0  0  0  0  0  0  0  0
   15.5561    2.3562   13.7935 H   0  0  0  0  0  0  0  0  0  0  0  0
   15.5496    1.6939   12.1548 H   0  0  0  0  0  0  0  0  0  0  0  0
   13.6221    3.7274   13.3736 H   0  0  0  0  0  0  0  0  0  0  0  0
   14.6678    3.9286   11.9686 H   0  0  0  0  0  0  0  0  0  0  0  0
   13.2981    2.2647   10.7034 H   0  0  0  0  0  0  0  0  0  0  0  0
   12.3092    3.6169   11.2520 H   0  0  0  0  0  0  0  0  0  0  0  0
   11.3149    2.3226   13.0277 H   0  0  0  0  0  0  0  0  0  0  0  0
   11.2731    1.3072   11.5891 H   0  0  0  0  0  0  0  0  0  0  0  0
   14.9102   -2.0977   21.1370 H   0  0  0  0  0  0  0  0  0  0  0  0
   14.3083   -1.0159   19.9275 H   0  0  0  0  0  0  0  0  0  0  0  0
   15.8364    0.7455   20.3486 H   0  0  0  0  0  0  0  0  0  0  0  0
   15.5054    0.1358   21.9881 H   0  0  0  0  0  0  0  0  0  0  0  0
   17.7108   -0.7314   22.0654 H   0  0  0  0  0  0  0  0  0  0  0  0
   17.9784   -0.0223   20.4561 H   0  0  0  0  0  0  0  0  0  0  0  0
   16.8519   -2.8080   21.1319 H   0  0  0  0  0  0  0  0  0  0  0  0
   18.0307   -2.3243   19.9585 H   0  0  0  0  0  0  0  0  0  0  0  0
  1  2  3  0
  2  3  1  0
  3  4  1  0
  4  5  2  0
  4  6  1  0
  6  7  2  0
  7  8  1  0
  8  9  2  0
  9 10  1  0
 10 11  1  0
 11 12  2  0
 12 13  1  0
 13 14  2  0
 12 15  1  0
 15 16  1  0
 16 17  1  0
 17 18  1  0
  3 19  1  0
 19 20  2  0
 19 21  1  0
 21 22  1  0
 22 23  1  0
 23 24  1  0
 24 25  1  0
 14  6  1  0
 25 21  1  0
 13  9  1  0
 18 11  1  0
  3 26  1  0
  7 27  1  0
  8 28  1  0
 10 29  1  0
 14 30  1  0
 15 31  1  0
 15 32  1  0
 16 33  1  0
 16 34  1  0
 17 35  1  0
 17 36  1  0
 18 37  1  0
 18 38  1  0
 22 39  1  0
 22 40  1  0
 23 41  1  0
 23 42  1  0
 24 43  1  0
 24 44  1  0
 25 45  1  0
 25 46  1  0
M  END
>  <Energy>  (117) 
80.729649349167985

>  <compound_id>  (117) 
51681

>  <target_id>  (117) 
1

>  <reference_id>  (117) 
124

>  <inspiration_ids>  (117) 
[124, 97]

>  <energy_score>  (117) 
12.873446700592751

>  <distance_score>  (117) 
2.9538699083788367

>  <path>  (117) 
/opt/xchem-fragalysis-2/maxwin/BulkDock/SCRATCH/511024/C51681-P124/C51681-P124.minimised.mol

>  <scratch_subdir>  (117) 
/opt/xchem-fragalysis-2/maxwin/BulkDock/SCRATCH/511024/C51681-P124

>  <fragmenstein_runtime>  (117) 
13.564111948013306

>  <fragmenstein_outcome>  (117) 
too moved

>  <fragmenstein_mode>  (117) 
expansion

>  <fragmenstein_error>  (117) 


$$$$
C51681-P97
     RDKit          3D

 46 49  0  0  0  0  0  0  0  0999 V2000
   17.5543   -4.6645   15.2173 N   0  0  0  0  0  0  0  0  0  0  0  0
   17.4246   -3.8007   15.9794 C   0  0  0  0  0  0  0  0  0  0  0  0
   17.2986   -2.5963   16.7865 C   0  0  0  0  0  0  0  0  0  0  0  0
   16.4690   -1.6200   16.0096 C   0  0  0  0  0  0  0  0  0  0  0  0
   16.9041   -0.4864   15.7740 O   0  0  0  0  0  0  0  0  0  0  0  0
   15.0882   -1.9398   15.5703 C   0  0  0  0  0  0  0  0  0  0  0  0
   14.1978   -2.7999   16.2312 C   0  0  0  0  0  0  0  0  0  0  0  0
   12.8219   -2.7343   15.9697 C   0  0  0  0  0  0  0  0  0  0  0  0
   12.4151   -1.6853   15.1415 C   0  0  0  0  0  0  0  0  0  0  0  0
   11.1829   -1.1502   14.8795 N   0  0  0  0  0  0  0  0  0  0  0  0
   11.3538    0.0694   14.2804 C   0  0  0  0  0  0  0  0  0  0  0  0
   12.6256    0.1550   13.7953 C   0  0  0  0  0  0  0  0  0  0  0  0
   13.3115   -0.8978   14.4178 C   0  0  0  0  0  0  0  0  0  0  0  0
   14.6682   -1.1133   14.5372 C   0  0  0  0  0  0  0  0  0  0  0  0
   13.1304    1.3021   12.9884 C   0  0  0  0  0  0  0  0  0  0  0  0
   11.9699    2.1840   12.4964 C   0  0  0  0  0  0  0  0  0  0  0  0
   10.9292    2.4150   13.6043 C   0  0  0  0  0  0  0  0  0  0  0  0
   10.3171    1.0929   14.1022 C   0  0  0  0  0  0  0  0  0  0  0  0
   16.8150   -2.7977   18.2151 C   0  0  0  0  0  0  0  0  0  0  0  0
   16.8470   -3.8258   18.7882 O   0  0  0  0  0  0  0  0  0  0  0  0
   16.3217   -1.4265   18.6732 N   0  0  0  0  0  0  0  0  0  0  0  0
   15.6442   -1.0084   19.9414 C   0  0  0  0  0  0  0  0  0  0  0  0
   15.5906    0.5030   20.0206 C   0  0  0  0  0  0  0  0  0  0  0  0
   16.9949    0.7876   19.6223 C   0  0  0  0  0  0  0  0  0  0  0  0
   17.4384   -0.6262   19.3106 C   0  0  0  0  0  0  0  0  0  0  0  0
   18.3074   -2.1685   16.8712 H   0  0  0  0  0  0  0  0  0  0  0  0
   14.5305   -3.4903   17.0005 H   0  0  0  0  0  0  0  0  0  0  0  0
   12.1166   -3.3660   16.4975 H   0  0  0  0  0  0  0  0  0  0  0  0
   10.2924   -1.5396   15.1540 H   0  0  0  0  0  0  0  0  0  0  0  0
   15.3601   -0.4570   14.0154 H   0  0  0  0  0  0  0  0  0  0  0  0
   13.8032    1.9056   13.6100 H   0  0  0  0  0  0  0  0  0  0  0  0
   13.7082    0.9413   12.1302 H   0  0  0  0  0  0  0  0  0  0  0  0
   12.3623    3.1432   12.1410 H   0  0  0  0  0  0  0  0  0  0  0  0
   11.4797    1.7023   11.6412 H   0  0  0  0  0  0  0  0  0  0  0  0
   10.1350    3.0753   13.2390 H   0  0  0  0  0  0  0  0  0  0  0  0
   11.4121    2.9323   14.4436 H   0  0  0  0  0  0  0  0  0  0  0  0
    9.7777    1.2680   15.0396 H   0  0  0  0  0  0  0  0  0  0  0  0
    9.5966    0.7297   13.3673 H   0  0  0  0  0  0  0  0  0  0  0  0
   16.0332   -1.5246   20.8359 H   0  0  0  0  0  0  0  0  0  0  0  0
   14.6202   -1.3927   19.8530 H   0  0  0  0  0  0  0  0  0  0  0  0
   14.8823    0.9208   19.2974 H   0  0  0  0  0  0  0  0  0  0  0  0
   15.3327    0.8615   21.0204 H   0  0  0  0  0  0  0  0  0  0  0  0
   17.5959    1.2404   20.4156 H   0  0  0  0  0  0  0  0  0  0  0  0
   17.0323    1.4326   18.7382 H   0  0  0  0  0  0  0  0  0  0  0  0
   17.9096   -1.1605   20.1547 H   0  0  0  0  0  0  0  0  0  0  0  0
   18.2453   -0.5713   18.5676 H   0  0  0  0  0  0  0  0  0  0  0  0
  1  2  3  0
  2  3  1  0
  3  4  1  0
  4  5  2  0
  4  6  1  0
  6  7  2  0
  7  8  1  0
  8  9  2  0
  9 10  1  0
 10 11  1  0
 11 12  2  0
 12 13  1  0
 13 14  2  0
 12 15  1  0
 15 16  1  0
 16 17  1  0
 17 18  1  0
  3 19  1  0
 19 20  2  0
 19 21  1  0
 21 22  1  0
 22 23  1  0
 23 24  1  0
 24 25  1  0
 14  6  1  0
 25 21  1  0
 13  9  1  0
 18 11  1  0
  3 26  1  0
  7 27  1  0
  8 28  1  0
 10 29  1  0
 14 30  1  0
 15 31  1  0
 15 32  1  0
 16 33  1  0
 16 34  1  0
 17 35  1  0
 17 36  1  0
 18 37  1  0
 18 38  1  0
 22 39  1  0
 22 40  1  0
 23 41  1  0
 23 42  1  0
 24 43  1  0
 24 44  1  0
 25 45  1  0
 25 46  1  0
M  END
>  <Energy>  (118) 
107.5928629936036

>  <compound_id>  (118) 
51681

>  <target_id>  (118) 
1

>  <reference_id>  (118) 
97

>  <inspiration_ids>  (118) 
[124, 97]

>  <energy_score>  (118) 
36.71830686493976

>  <distance_score>  (118) 
2.6095942835090433

>  <path>  (118) 
/opt/xchem-fragalysis-2/maxwin/BulkDock/SCRATCH/511024/C51681-P97/C51681-P97.minimised.mol

>  <scratch_subdir>  (118) 
/opt/xchem-fragalysis-2/maxwin/BulkDock/SCRATCH/511024/C51681-P97

>  <fragmenstein_runtime>  (118) 
13.083348274230957

>  <fragmenstein_outcome>  (118) 
too moved

>  <fragmenstein_mode>  (118) 
expansion

>  <fragmenstein_error>  (118) 


$$$$
C51683-P124
     RDKit          3D

 38 41  0  0  0  0  0  0  0  0999 V2000
   12.7635   -3.5592   16.7083 C   0  0  0  0  0  0  0  0  0  0  0  0
   12.1492   -2.9642   15.5872 C   0  0  0  0  0  0  0  0  0  0  0  0
   12.9003   -2.0229   14.8723 C   0  0  0  0  0  0  0  0  0  0  0  0
   12.5744   -1.2027   13.7962 N   0  0  0  0  0  0  0  0  0  0  0  0
   13.6785   -0.4751   13.4795 C   0  0  0  0  0  0  0  0  0  0  0  0
   14.6841   -0.7694   14.3453 C   0  0  0  0  0  0  0  0  0  0  0  0
   14.2396   -1.7701   15.1951 C   0  0  0  0  0  0  0  0  0  0  0  0
   14.8491   -2.4566   16.2381 C   0  0  0  0  0  0  0  0  0  0  0  0
   14.0749   -3.2491   17.0842 C   0  0  0  0  0  0  0  0  0  0  0  0
   14.7011   -3.6394   18.4063 C   0  0  0  0  0  0  0  0  0  0  0  0
   14.9916   -2.4233   19.3439 C   0  0  0  0  0  0  0  0  0  0  0  0
   16.1092   -2.6525   20.3486 C   0  0  0  0  0  0  0  0  0  0  0  0
   16.4258   -1.2402   20.8474 C   0  0  0  0  0  0  0  0  0  0  0  0
   15.8719   -0.2926   19.7960 C   0  0  0  0  0  0  0  0  0  0  0  0
   15.4570   -1.1700   18.7165 N   0  0  0  0  0  0  0  0  0  0  0  0
   15.8952    0.0320   14.1167 C   0  0  0  0  0  0  0  0  0  0  0  0
   15.6037    0.6272   12.7109 C   0  0  0  0  0  0  0  0  0  0  0  0
   14.0524    0.5346   12.4777 C   0  0  0  0  0  0  0  0  0  0  0  0
   12.1902   -4.2594   17.3071 H   0  0  0  0  0  0  0  0  0  0  0  0
   11.1285   -3.2038   15.3110 H   0  0  0  0  0  0  0  0  0  0  0  0
   11.6596   -1.1560   13.3642 H   0  0  0  0  0  0  0  0  0  0  0  0
   15.8937   -2.2546   16.4639 H   0  0  0  0  0  0  0  0  0  0  0  0
   14.0482   -4.3388   18.9413 H   0  0  0  0  0  0  0  0  0  0  0  0
   15.6318   -4.1807   18.1929 H   0  0  0  0  0  0  0  0  0  0  0  0
   14.0847   -2.2081   19.9127 H   0  0  0  0  0  0  0  0  0  0  0  0
   16.9959   -3.0840   19.8678 H   0  0  0  0  0  0  0  0  0  0  0  0
   15.8085   -3.3142   21.1670 H   0  0  0  0  0  0  0  0  0  0  0  0
   15.9430   -1.0591   21.8144 H   0  0  0  0  0  0  0  0  0  0  0  0
   17.5055   -1.1157   20.9823 H   0  0  0  0  0  0  0  0  0  0  0  0
   15.0163    0.2631   20.1958 H   0  0  0  0  0  0  0  0  0  0  0  0
   16.6216    0.4283   19.4580 H   0  0  0  0  0  0  0  0  0  0  0  0
   14.7225   -0.7467   18.1533 H   0  0  0  0  0  0  0  0  0  0  0  0
   15.9808    0.8288   14.8626 H   0  0  0  0  0  0  0  0  0  0  0  0
   16.8119   -0.5638   14.1142 H   0  0  0  0  0  0  0  0  0  0  0  0
   16.1106    0.0176   11.9507 H   0  0  0  0  0  0  0  0  0  0  0  0
   15.9742    1.6519   12.6068 H   0  0  0  0  0  0  0  0  0  0  0  0
   13.8302    0.2329   11.4520 H   0  0  0  0  0  0  0  0  0  0  0  0
   13.5750    1.4959   12.6917 H   0  0  0  0  0  0  0  0  0  0  0  0
  1  2  2  0
  2  3  1  0
  3  4  1  0
  4  5  1  0
  5  6  2  0
  6  7  1  0
  7  8  1  0
  8  9  2  0
  9 10  1  0
 10 11  1  0
 11 12  1  0
 12 13  1  0
 13 14  1  0
 14 15  1  0
  6 16  1  0
 16 17  1  0
 17 18  1  0
  9  1  1  0
 15 11  1  0
  7  3  2  0
 18  5  1  0
  1 19  1  0
  2 20  1  0
  4 21  1  0
  8 22  1  0
 10 23  1  0
 10 24  1  0
 11 25  1  0
 12 26  1  0
 12 27  1  0
 13 28  1  0
 13 29  1  0
 14 30  1  0
 14 31  1  0
 15 32  1  0
 16 33  1  0
 16 34  1  0
 17 35  1  0
 17 36  1  0
 18 37  1  0
 18 38  1  0
M  END
>  <Energy>  (119) 
64.787295864560903

>  <compound_id>  (119) 
51683

>  <target_id>  (119) 
1

>  <reference_id>  (119) 
124

>  <inspiration_ids>  (119) 
[124, 97]

>  <energy_score>  (119) 
-8.57800173699664

>  <distance_score>  (119) 
1.7115706272627007

>  <path>  (119) 
/opt/xchem-fragalysis-2/maxwin/BulkDock/SCRATCH/511024/C51683-P124/C51683-P124.minimised.mol

>  <scratch_subdir>  (119) 
/opt/xchem-fragalysis-2/maxwin/BulkDock/SCRATCH/511024/C51683-P124

>  <fragmenstein_runtime>  (119) 
2.26271915435791

>  <fragmenstein_outcome>  (119) 
too moved

>  <fragmenstein_mode>  (119) 
expansion

>  <fragmenstein_error>  (119) 


$$$$
C51683-P97
     RDKit          3D

 38 41  0  0  0  0  0  0  0  0999 V2000
   12.6462   -3.5884   16.6221 C   0  0  0  0  0  0  0  0  0  0  0  0
   12.0394   -2.9290   15.5340 C   0  0  0  0  0  0  0  0  0  0  0  0
   12.7947   -1.9558   14.8687 C   0  0  0  0  0  0  0  0  0  0  0  0
   12.4853   -1.1198   13.7994 N   0  0  0  0  0  0  0  0  0  0  0  0
   13.5945   -0.3852   13.5140 C   0  0  0  0  0  0  0  0  0  0  0  0
   14.5817   -0.6859   14.4003 C   0  0  0  0  0  0  0  0  0  0  0  0
   14.1261   -1.7065   15.2208 C   0  0  0  0  0  0  0  0  0  0  0  0
   14.7263   -2.4403   16.2368 C   0  0  0  0  0  0  0  0  0  0  0  0
   13.9561   -3.3042   17.0170 C   0  0  0  0  0  0  0  0  0  0  0  0
   14.5879   -3.8080   18.2960 C   0  0  0  0  0  0  0  0  0  0  0  0
   14.8457   -2.6745   19.3389 C   0  0  0  0  0  0  0  0  0  0  0  0
   16.0252   -2.9225   20.2669 C   0  0  0  0  0  0  0  0  0  0  0  0
   16.3246   -1.5375   20.8503 C   0  0  0  0  0  0  0  0  0  0  0  0
   15.6245   -0.5397   19.9447 C   0  0  0  0  0  0  0  0  0  0  0  0
   15.2072   -1.3404   18.8105 N   0  0  0  0  0  0  0  0  0  0  0  0
   15.8095    0.0942   14.1842 C   0  0  0  0  0  0  0  0  0  0  0  0
   15.5575    0.6632   12.7601 C   0  0  0  0  0  0  0  0  0  0  0  0
   14.0080    0.6004   12.5021 C   0  0  0  0  0  0  0  0  0  0  0  0
   12.0738   -4.3309   17.1701 H   0  0  0  0  0  0  0  0  0  0  0  0
   11.0257   -3.1633   15.2283 H   0  0  0  0  0  0  0  0  0  0  0  0
   11.5877   -1.1057   13.3276 H   0  0  0  0  0  0  0  0  0  0  0  0
   15.7676   -2.2473   16.4850 H   0  0  0  0  0  0  0  0  0  0  0  0
   13.9551   -4.5786   18.7532 H   0  0  0  0  0  0  0  0  0  0  0  0
   15.5312   -4.3041   18.0327 H   0  0  0  0  0  0  0  0  0  0  0  0
   13.9490   -2.5838   19.9591 H   0  0  0  0  0  0  0  0  0  0  0  0
   16.8999   -3.2848   19.7126 H   0  0  0  0  0  0  0  0  0  0  0  0
   15.7938   -3.6510   21.0503 H   0  0  0  0  0  0  0  0  0  0  0  0
   15.9408   -1.4599   21.8738 H   0  0  0  0  0  0  0  0  0  0  0  0
   17.4061   -1.3669   20.8842 H   0  0  0  0  0  0  0  0  0  0  0  0
   14.7564   -0.1062   20.4538 H   0  0  0  0  0  0  0  0  0  0  0  0
   16.2871    0.2754   19.6406 H   0  0  0  0  0  0  0  0  0  0  0  0
   14.4193   -0.9198   18.3211 H   0  0  0  0  0  0  0  0  0  0  0  0
   15.8887    0.9051   14.9155 H   0  0  0  0  0  0  0  0  0  0  0  0
   16.7180   -0.5133   14.2147 H   0  0  0  0  0  0  0  0  0  0  0  0
   16.0627    0.0243   12.0233 H   0  0  0  0  0  0  0  0  0  0  0  0
   15.9534    1.6765   12.6393 H   0  0  0  0  0  0  0  0  0  0  0  0
   13.7970    0.2885   11.4770 H   0  0  0  0  0  0  0  0  0  0  0  0
   13.5486    1.5751   12.6934 H   0  0  0  0  0  0  0  0  0  0  0  0
  1  2  2  0
  2  3  1  0
  3  4  1  0
  4  5  1  0
  5  6  2  0
  6  7  1  0
  7  8  1  0
  8  9  2  0
  9 10  1  0
 10 11  1  0
 11 12  1  0
 12 13  1  0
 13 14  1  0
 14 15  1  0
  6 16  1  0
 16 17  1  0
 17 18  1  0
  9  1  1  0
 15 11  1  0
  7  3  2  0
 18  5  1  0
  1 19  1  0
  2 20  1  0
  4 21  1  0
  8 22  1  0
 10 23  1  0
 10 24  1  0
 11 25  1  0
 12 26  1  0
 12 27  1  0
 13 28  1  0
 13 29  1  0
 14 30  1  0
 14 31  1  0
 15 32  1  0
 16 33  1  0
 16 34  1  0
 17 35  1  0
 17 36  1  0
 18 37  1  0
 18 38  1  0
M  END
>  <Energy>  (120) 
64.542818277934643

>  <compound_id>  (120) 
51683

>  <target_id>  (120) 
1

>  <reference_id>  (120) 
97

>  <inspiration_ids>  (120) 
[124, 97]

>  <energy_score>  (120) 
-8.822479323620172

>  <distance_score>  (120) 
1.7493469451077934

>  <path>  (120) 
/opt/xchem-fragalysis-2/maxwin/BulkDock/SCRATCH/511024/C51683-P97/C51683-P97.minimised.mol

>  <scratch_subdir>  (120) 
/opt/xchem-fragalysis-2/maxwin/BulkDock/SCRATCH/511024/C51683-P97

>  <fragmenstein_runtime>  (120) 
2.243117094039917

>  <fragmenstein_outcome>  (120) 
too moved

>  <fragmenstein_mode>  (120) 
expansion

>  <fragmenstein_error>  (120) 


$$$$
C51684-P124
     RDKit          3D

 41 44  0  0  0  0  0  0  0  0999 V2000
   12.7635   -3.5609   16.7494 C   0  0  0  0  0  0  0  0  0  0  0  0
   12.2003   -3.0079   15.5802 C   0  0  0  0  0  0  0  0  0  0  0  0
   12.9831   -2.0903   14.8690 C   0  0  0  0  0  0  0  0  0  0  0  0
   12.7579   -1.3862   13.7029 N   0  0  0  0  0  0  0  0  0  0  0  0
   13.9150   -0.7420   13.3330 C   0  0  0  0  0  0  0  0  0  0  0  0
   14.8147   -0.8510   14.3634 C   0  0  0  0  0  0  0  0  0  0  0  0
   14.2749   -1.7711   15.2703 C   0  0  0  0  0  0  0  0  0  0  0  0
   14.8155   -2.3752   16.3973 C   0  0  0  0  0  0  0  0  0  0  0  0
   14.0361   -3.1962   17.2029 C   0  0  0  0  0  0  0  0  0  0  0  0
   14.5922   -3.5472   18.5674 C   0  0  0  0  0  0  0  0  0  0  0  0
   15.0040   -2.2538   19.3354 C   0  0  0  0  0  0  0  0  0  0  0  0
   15.3034   -2.4384   20.8101 C   0  0  0  0  0  0  0  0  0  0  0  0
   15.8905   -1.0785   21.1848 C   0  0  0  0  0  0  0  0  0  0  0  0
   16.4422   -0.5061   19.8842 C   0  0  0  0  0  0  0  0  0  0  0  0
   16.2397   -1.5609   18.8892 N   0  0  0  0  0  0  0  0  0  0  0  0
   16.1520   -0.2038   14.3761 C   0  0  0  0  0  0  0  0  0  0  0  0
   16.6363    0.0189   12.9446 C   0  0  0  0  0  0  0  0  0  0  0  0
   15.5435    0.6796   12.0914 C   0  0  0  0  0  0  0  0  0  0  0  0
   14.2328   -0.1333   12.0191 C   0  0  0  0  0  0  0  0  0  0  0  0
   12.1773   -4.2715   17.3222 H   0  0  0  0  0  0  0  0  0  0  0  0
   11.2105   -3.2938   15.2419 H   0  0  0  0  0  0  0  0  0  0  0  0
   11.9002   -1.4397   13.1719 H   0  0  0  0  0  0  0  0  0  0  0  0
   15.8403   -2.1375   16.6548 H   0  0  0  0  0  0  0  0  0  0  0  0
   13.8299   -4.0812   19.1472 H   0  0  0  0  0  0  0  0  0  0  0  0
   15.4501   -4.2205   18.4550 H   0  0  0  0  0  0  0  0  0  0  0  0
   14.2032   -1.5176   19.2301 H   0  0  0  0  0  0  0  0  0  0  0  0
   16.0448   -3.2313   20.9696 H   0  0  0  0  0  0  0  0  0  0  0  0
   14.4176   -2.6794   21.4020 H   0  0  0  0  0  0  0  0  0  0  0  0
   16.6668   -1.1884   21.9488 H   0  0  0  0  0  0  0  0  0  0  0  0
   15.1091   -0.4223   21.5852 H   0  0  0  0  0  0  0  0  0  0  0  0
   17.5011   -0.2433   19.9695 H   0  0  0  0  0  0  0  0  0  0  0  0
   15.8940    0.3974   19.5947 H   0  0  0  0  0  0  0  0  0  0  0  0
   17.0158   -2.2223   18.9431 H   0  0  0  0  0  0  0  0  0  0  0  0
   16.0779    0.7575   14.8988 H   0  0  0  0  0  0  0  0  0  0  0  0
   16.8864   -0.8129   14.9139 H   0  0  0  0  0  0  0  0  0  0  0  0
   16.9140   -0.9408   12.4900 H   0  0  0  0  0  0  0  0  0  0  0  0
   17.5353    0.6452   12.9510 H   0  0  0  0  0  0  0  0  0  0  0  0
   15.3224    1.6686   12.5149 H   0  0  0  0  0  0  0  0  0  0  0  0
   15.9166    0.8528   11.0754 H   0  0  0  0  0  0  0  0  0  0  0  0
   13.4215    0.5209   11.6841 H   0  0  0  0  0  0  0  0  0  0  0  0
   14.3508   -0.9325   11.2781 H   0  0  0  0  0  0  0  0  0  0  0  0
  1  2  2  0
  2  3  1  0
  3  4  1  0
  4  5  1  0
  5  6  2  0
  6  7  1  0
  7  8  1  0
  8  9  2  0
  9 10  1  0
 10 11  1  0
 11 12  1  0
 12 13  1  0
 13 14  1  0
 14 15  1  0
  6 16  1  0
 16 17  1  0
 17 18  1  0
 18 19  1  0
  9  1  1  0
 15 11  1  0
  7  3  2  0
 19  5  1  0
  1 20  1  0
  2 21  1  0
  4 22  1  0
  8 23  1  0
 10 24  1  0
 10 25  1  0
 11 26  1  0
 12 27  1  0
 12 28  1  0
 13 29  1  0
 13 30  1  0
 14 31  1  0
 14 32  1  0
 15 33  1  0
 16 34  1  0
 16 35  1  0
 17 36  1  0
 17 37  1  0
 18 38  1  0
 18 39  1  0
 19 40  1  0
 19 41  1  0
M  END
>  <Energy>  (121) 
50.966738416222711

>  <compound_id>  (121) 
51684

>  <target_id>  (121) 
1

>  <reference_id>  (121) 
124

>  <inspiration_ids>  (121) 
[124, 97]

>  <energy_score>  (121) 
-9.846427196301903

>  <distance_score>  (121) 
2.0866822049293123

>  <path>  (121) 
/opt/xchem-fragalysis-2/maxwin/BulkDock/SCRATCH/511024/C51684-P124/C51684-P124.minimised.mol

>  <scratch_subdir>  (121) 
/opt/xchem-fragalysis-2/maxwin/BulkDock/SCRATCH/511024/C51684-P124

>  <fragmenstein_runtime>  (121) 
2.665271043777466

>  <fragmenstein_outcome>  (121) 
too moved

>  <fragmenstein_mode>  (121) 
expansion

>  <fragmenstein_error>  (121) 


$$$$
C51684-P97
     RDKit          3D

 41 44  0  0  0  0  0  0  0  0999 V2000
   12.6982   -3.5366   16.7366 C   0  0  0  0  0  0  0  0  0  0  0  0
   12.1445   -2.9930   15.5578 C   0  0  0  0  0  0  0  0  0  0  0  0
   12.9037   -2.0333   14.8778 C   0  0  0  0  0  0  0  0  0  0  0  0
   12.7132   -1.3871   13.6723 N   0  0  0  0  0  0  0  0  0  0  0  0
   13.8676   -0.7170   13.3346 C   0  0  0  0  0  0  0  0  0  0  0  0
   14.6958   -0.7134   14.4300 C   0  0  0  0  0  0  0  0  0  0  0  0
   14.1429   -1.6192   15.3458 C   0  0  0  0  0  0  0  0  0  0  0  0
   14.6554   -2.1782   16.5084 C   0  0  0  0  0  0  0  0  0  0  0  0
   13.9225   -3.0975   17.2513 C   0  0  0  0  0  0  0  0  0  0  0  0
   14.4869   -3.5317   18.5894 C   0  0  0  0  0  0  0  0  0  0  0  0
   14.9919   -2.3033   19.4047 C   0  0  0  0  0  0  0  0  0  0  0  0
   15.2598   -2.5531   20.8755 C   0  0  0  0  0  0  0  0  0  0  0  0
   15.9408   -1.2501   21.2918 C   0  0  0  0  0  0  0  0  0  0  0  0
   16.5577   -0.6929   20.0138 C   0  0  0  0  0  0  0  0  0  0  0  0
   16.2873   -1.7040   18.9903 N   0  0  0  0  0  0  0  0  0  0  0  0
   16.0203   -0.0395   14.4686 C   0  0  0  0  0  0  0  0  0  0  0  0
   16.6142    0.0022   13.0610 C   0  0  0  0  0  0  0  0  0  0  0  0
   15.5960    0.5627   12.0571 C   0  0  0  0  0  0  0  0  0  0  0  0
   14.2711   -0.2289   11.9913 C   0  0  0  0  0  0  0  0  0  0  0  0
   12.1475   -4.3129   17.2597 H   0  0  0  0  0  0  0  0  0  0  0  0
   11.1966   -3.3472   15.1670 H   0  0  0  0  0  0  0  0  0  0  0  0
   11.9056   -1.5402   13.0844 H   0  0  0  0  0  0  0  0  0  0  0  0
   15.6510   -1.8744   16.8021 H   0  0  0  0  0  0  0  0  0  0  0  0
   13.7019   -4.0383   19.1641 H   0  0  0  0  0  0  0  0  0  0  0  0
   15.2955   -4.2545   18.4295 H   0  0  0  0  0  0  0  0  0  0  0  0
   14.2538   -1.5009   19.3185 H   0  0  0  0  0  0  0  0  0  0  0  0
   15.9387   -3.4031   21.0189 H   0  0  0  0  0  0  0  0  0  0  0  0
   14.3524   -2.7432   21.4529 H   0  0  0  0  0  0  0  0  0  0  0  0
   16.6925   -1.4352   22.0658 H   0  0  0  0  0  0  0  0  0  0  0  0
   15.2038   -0.5456   21.6942 H   0  0  0  0  0  0  0  0  0  0  0  0
   17.6330   -0.5195   20.1209 H   0  0  0  0  0  0  0  0  0  0  0  0
   16.0896    0.2591   19.7397 H   0  0  0  0  0  0  0  0  0  0  0  0
   17.0049   -2.4289   19.0363 H   0  0  0  0  0  0  0  0  0  0  0  0
   15.8925    0.9798   14.8523 H   0  0  0  0  0  0  0  0  0  0  0  0
   16.7167   -0.5557   15.1375 H   0  0  0  0  0  0  0  0  0  0  0  0
   16.9102   -1.0072   12.7475 H   0  0  0  0  0  0  0  0  0  0  0  0
   17.5189    0.6204   13.0590 H   0  0  0  0  0  0  0  0  0  0  0  0
   15.3697    1.6000   12.3385 H   0  0  0  0  0  0  0  0  0  0  0  0
   16.0412    0.6045   11.0562 H   0  0  0  0  0  0  0  0  0  0  0  0
   13.4958    0.4135   11.5621 H   0  0  0  0  0  0  0  0  0  0  0  0
   14.4038   -1.0906   11.3265 H   0  0  0  0  0  0  0  0  0  0  0  0
  1  2  2  0
  2  3  1  0
  3  4  1  0
  4  5  1  0
  5  6  2  0
  6  7  1  0
  7  8  1  0
  8  9  2  0
  9 10  1  0
 10 11  1  0
 11 12  1  0
 12 13  1  0
 13 14  1  0
 14 15  1  0
  6 16  1  0
 16 17  1  0
 17 18  1  0
 18 19  1  0
  9  1  1  0
 15 11  1  0
  7  3  2  0
 19  5  1  0
  1 20  1  0
  2 21  1  0
  4 22  1  0
  8 23  1  0
 10 24  1  0
 10 25  1  0
 11 26  1  0
 12 27  1  0
 12 28  1  0
 13 29  1  0
 13 30  1  0
 14 31  1  0
 14 32  1  0
 15 33  1  0
 16 34  1  0
 16 35  1  0
 17 36  1  0
 17 37  1  0
 18 38  1  0
 18 39  1  0
 19 40  1  0
 19 41  1  0
M  END
>  <Energy>  (122) 
51.551704654227564

>  <compound_id>  (122) 
51684

>  <target_id>  (122) 
1

>  <reference_id>  (122) 
97

>  <inspiration_ids>  (122) 
[124, 97]

>  <energy_score>  (122) 
-9.26146095829597

>  <distance_score>  (122) 
2.0834189770237024

>  <path>  (122) 
/opt/xchem-fragalysis-2/maxwin/BulkDock/SCRATCH/511024/C51684-P97/C51684-P97.minimised.mol

>  <scratch_subdir>  (122) 
/opt/xchem-fragalysis-2/maxwin/BulkDock/SCRATCH/511024/C51684-P97

>  <fragmenstein_runtime>  (122) 
2.351856231689453

>  <fragmenstein_outcome>  (122) 
too moved

>  <fragmenstein_mode>  (122) 
expansion

>  <fragmenstein_error>  (122) 


$$$$
C51685-P124
     RDKit          3D

 41 44  0  0  0  0  0  0  0  0999 V2000
   13.7531   -4.3204   19.8461 C   0  0  0  0  0  0  0  0  0  0  0  0
   14.7033   -3.5463   18.9150 C   0  0  0  0  0  0  0  0  0  0  0  0
   14.0816   -3.0582   17.5892 C   0  0  0  0  0  0  0  0  0  0  0  0
   12.9286   -3.6088   16.9993 C   0  0  0  0  0  0  0  0  0  0  0  0
   12.3790   -3.1372   15.7871 C   0  0  0  0  0  0  0  0  0  0  0  0
   13.0981   -2.1574   15.1003 C   0  0  0  0  0  0  0  0  0  0  0  0
   12.9195   -1.5944   13.8513 N   0  0  0  0  0  0  0  0  0  0  0  0
   14.0457   -0.8794   13.5276 C   0  0  0  0  0  0  0  0  0  0  0  0
   14.8020   -0.7293   14.6668 C   0  0  0  0  0  0  0  0  0  0  0  0
   14.2620   -1.6061   15.6258 C   0  0  0  0  0  0  0  0  0  0  0  0
   14.7174   -2.0272   16.8813 C   0  0  0  0  0  0  0  0  0  0  0  0
   16.0726    0.0406   14.7043 C   0  0  0  0  0  0  0  0  0  0  0  0
   16.7391   -0.0038   13.3265 C   0  0  0  0  0  0  0  0  0  0  0  0
   15.7480    0.3960   12.2213 C   0  0  0  0  0  0  0  0  0  0  0  0
   14.4803   -0.4823   12.1636 C   0  0  0  0  0  0  0  0  0  0  0  0
   15.3427   -2.4100   19.7579 C   0  0  0  0  0  0  0  0  0  0  0  0
   16.8480   -2.4831   19.5128 C   0  0  0  0  0  0  0  0  0  0  0  0
   17.0425   -3.5872   18.4944 C   0  0  0  0  0  0  0  0  0  0  0  0
   15.8578   -4.4243   18.6414 N   0  0  0  0  0  0  0  0  0  0  0  0
   14.2946   -4.7531   20.6974 H   0  0  0  0  0  0  0  0  0  0  0  0
   13.2291   -5.1393   19.3604 H   0  0  0  0  0  0  0  0  0  0  0  0
   12.9893   -3.6687   20.2689 H   0  0  0  0  0  0  0  0  0  0  0  0
   12.4100   -4.4307   17.4803 H   0  0  0  0  0  0  0  0  0  0  0  0
   11.4820   -3.5833   15.3703 H   0  0  0  0  0  0  0  0  0  0  0  0
   12.1705   -1.8421   13.2196 H   0  0  0  0  0  0  0  0  0  0  0  0
   15.6177   -1.5558   17.2564 H   0  0  0  0  0  0  0  0  0  0  0  0
   16.7629   -0.3628   15.4527 H   0  0  0  0  0  0  0  0  0  0  0  0
   15.8556    1.0787   14.9830 H   0  0  0  0  0  0  0  0  0  0  0  0
   17.6026    0.6707   13.3128 H   0  0  0  0  0  0  0  0  0  0  0  0
   17.1145   -1.0150   13.1237 H   0  0  0  0  0  0  0  0  0  0  0  0
   15.4441    1.4375   12.3926 H   0  0  0  0  0  0  0  0  0  0  0  0
   16.2469    0.3761   11.2455 H   0  0  0  0  0  0  0  0  0  0  0  0
   13.6875    0.0657   11.6460 H   0  0  0  0  0  0  0  0  0  0  0  0
   14.6959   -1.3872   11.5826 H   0  0  0  0  0  0  0  0  0  0  0  0
   15.1699   -2.5499   20.8332 H   0  0  0  0  0  0  0  0  0  0  0  0
   14.9466   -1.4171   19.5165 H   0  0  0  0  0  0  0  0  0  0  0  0
   17.2491   -1.5286   19.1573 H   0  0  0  0  0  0  0  0  0  0  0  0
   17.3615   -2.7301   20.4497 H   0  0  0  0  0  0  0  0  0  0  0  0
   17.9516   -4.1613   18.6984 H   0  0  0  0  0  0  0  0  0  0  0  0
   17.1342   -3.1919   17.4782 H   0  0  0  0  0  0  0  0  0  0  0  0
   15.7026   -4.9380   17.7821 H   0  0  0  0  0  0  0  0  0  0  0  0
  1  2  1  0
  2  3  1  0
  3  4  2  0
  4  5  1  0
  5  6  2  0
  6  7  1  0
  7  8  1  0
  8  9  2  0
  9 10  1  0
 10 11  2  0
  9 12  1  0
 12 13  1  0
 13 14  1  0
 14 15  1  0
  2 16  1  0
 16 17  1  0
 17 18  1  0
 18 19  1  0
 19  2  1  0
 11  3  1  0
 10  6  1  0
 15  8  1  0
  1 20  1  0
  1 21  1  0
  1 22  1  0
  4 23  1  0
  5 24  1  0
  7 25  1  0
 11 26  1  0
 12 27  1  0
 12 28  1  0
 13 29  1  0
 13 30  1  0
 14 31  1  0
 14 32  1  0
 15 33  1  0
 15 34  1  0
 16 35  1  0
 16 36  1  0
 17 37  1  0
 17 38  1  0
 18 39  1  0
 18 40  1  0
 19 41  1  0
M  END
>  <Energy>  (123) 
37.631869061515125

>  <compound_id>  (123) 
51685

>  <target_id>  (123) 
1

>  <reference_id>  (123) 
124

>  <inspiration_ids>  (123) 
[124, 97]

>  <energy_score>  (123) 
-24.118194109251064

>  <distance_score>  (123) 
2.018636396847994

>  <path>  (123) 
/opt/xchem-fragalysis-2/maxwin/BulkDock/SCRATCH/511024/C51685-P124/C51685-P124.minimised.mol

>  <scratch_subdir>  (123) 
/opt/xchem-fragalysis-2/maxwin/BulkDock/SCRATCH/511024/C51685-P124

>  <fragmenstein_runtime>  (123) 
1.5862548351287842

>  <fragmenstein_outcome>  (123) 
too moved

>  <fragmenstein_mode>  (123) 
expansion

>  <fragmenstein_error>  (123) 


$$$$
C51685-P97
     RDKit          3D

 41 44  0  0  0  0  0  0  0  0999 V2000
   13.7208   -4.4636   19.5295 C   0  0  0  0  0  0  0  0  0  0  0  0
   14.6249   -3.8382   18.4632 C   0  0  0  0  0  0  0  0  0  0  0  0
   13.8440   -3.0417   17.4022 C   0  0  0  0  0  0  0  0  0  0  0  0
   12.7060   -3.5744   16.7604 C   0  0  0  0  0  0  0  0  0  0  0  0
   12.1237   -2.9845   15.6257 C   0  0  0  0  0  0  0  0  0  0  0  0
   12.8232   -1.9221   15.0575 C   0  0  0  0  0  0  0  0  0  0  0  0
   12.6941   -1.3189   13.8220 N   0  0  0  0  0  0  0  0  0  0  0  0
   13.8449   -0.6137   13.5677 C   0  0  0  0  0  0  0  0  0  0  0  0
   14.5142   -0.4428   14.7594 C   0  0  0  0  0  0  0  0  0  0  0  0
   13.9271   -1.3444   15.6751 C   0  0  0  0  0  0  0  0  0  0  0  0
   14.3723   -1.8440   16.9046 C   0  0  0  0  0  0  0  0  0  0  0  0
   15.8087    0.2855   14.8581 C   0  0  0  0  0  0  0  0  0  0  0  0
   16.5901    0.1085   13.5511 C   0  0  0  0  0  0  0  0  0  0  0  0
   15.7249    0.4916   12.3389 C   0  0  0  0  0  0  0  0  0  0  0  0
   14.4038   -0.2987   12.2244 C   0  0  0  0  0  0  0  0  0  0  0  0
   15.7555   -3.0856   19.2058 C   0  0  0  0  0  0  0  0  0  0  0  0
   17.0146   -3.2713   18.3652 C   0  0  0  0  0  0  0  0  0  0  0  0
   16.6278   -4.2612   17.2844 C   0  0  0  0  0  0  0  0  0  0  0  0
   15.3975   -4.8970   17.7711 N   0  0  0  0  0  0  0  0  0  0  0  0
   14.2912   -5.0806   20.2348 H   0  0  0  0  0  0  0  0  0  0  0  0
   12.9620   -5.1106   19.1007 H   0  0  0  0  0  0  0  0  0  0  0  0
   13.2110   -3.6921   20.1134 H   0  0  0  0  0  0  0  0  0  0  0  0
   12.2754   -4.5112   17.1066 H   0  0  0  0  0  0  0  0  0  0  0  0
   11.2752   -3.4421   15.1276 H   0  0  0  0  0  0  0  0  0  0  0  0
   12.0008   -1.5974   13.1412 H   0  0  0  0  0  0  0  0  0  0  0  0
   15.2599   -1.3932   17.3300 H   0  0  0  0  0  0  0  0  0  0  0  0
   16.4144   -0.0801   15.6936 H   0  0  0  0  0  0  0  0  0  0  0  0
   15.6105    1.3490   15.0370 H   0  0  0  0  0  0  0  0  0  0  0  0
   17.4918    0.7305   13.5741 H   0  0  0  0  0  0  0  0  0  0  0  0
   16.9167   -0.9341   13.4462 H   0  0  0  0  0  0  0  0  0  0  0  0
   15.4841    1.5605   12.4153 H   0  0  0  0  0  0  0  0  0  0  0  0
   16.3007    0.3714   11.4139 H   0  0  0  0  0  0  0  0  0  0  0  0
   13.6869    0.2780   11.6312 H   0  0  0  0  0  0  0  0  0  0  0  0
   14.5948   -1.2389   11.6928 H   0  0  0  0  0  0  0  0  0  0  0  0
   15.9511   -3.5350   20.1894 H   0  0  0  0  0  0  0  0  0  0  0  0
   15.5333   -2.0309   19.3988 H   0  0  0  0  0  0  0  0  0  0  0  0
   17.3583   -2.3260   17.9332 H   0  0  0  0  0  0  0  0  0  0  0  0
   17.8260   -3.6646   18.9883 H   0  0  0  0  0  0  0  0  0  0  0  0
   17.4108   -5.0079   17.1214 H   0  0  0  0  0  0  0  0  0  0  0  0
   16.4556   -3.7521   16.3292 H   0  0  0  0  0  0  0  0  0  0  0  0
   14.8749   -5.2202   16.9566 H   0  0  0  0  0  0  0  0  0  0  0  0
  1  2  1  0
  2  3  1  0
  3  4  2  0
  4  5  1  0
  5  6  2  0
  6  7  1  0
  7  8  1  0
  8  9  2  0
  9 10  1  0
 10 11  2  0
  9 12  1  0
 12 13  1  0
 13 14  1  0
 14 15  1  0
  2 16  1  0
 16 17  1  0
 17 18  1  0
 18 19  1  0
 19  2  1  0
 11  3  1  0
 10  6  1  0
 15  8  1  0
  1 20  1  0
  1 21  1  0
  1 22  1  0
  4 23  1  0
  5 24  1  0
  7 25  1  0
 11 26  1  0
 12 27  1  0
 12 28  1  0
 13 29  1  0
 13 30  1  0
 14 31  1  0
 14 32  1  0
 15 33  1  0
 15 34  1  0
 16 35  1  0
 16 36  1  0
 17 37  1  0
 17 38  1  0
 18 39  1  0
 18 40  1  0
 19 41  1  0
M  END
>  <Energy>  (124) 
42.083661120923097

>  <compound_id>  (124) 
51685

>  <target_id>  (124) 
1

>  <reference_id>  (124) 
97

>  <inspiration_ids>  (124) 
[124, 97]

>  <energy_score>  (124) 
-19.666402049841963

>  <distance_score>  (124) 
1.9011449304872685

>  <path>  (124) 
/opt/xchem-fragalysis-2/maxwin/BulkDock/SCRATCH/511024/C51685-P97/C51685-P97.minimised.mol

>  <scratch_subdir>  (124) 
/opt/xchem-fragalysis-2/maxwin/BulkDock/SCRATCH/511024/C51685-P97

>  <fragmenstein_runtime>  (124) 
1.5564594268798828

>  <fragmenstein_outcome>  (124) 
too moved

>  <fragmenstein_mode>  (124) 
expansion

>  <fragmenstein_error>  (124) 


$$$$
C51686-P124
     RDKit          3D

 38 41  0  0  0  0  0  0  0  0999 V2000
   13.8230   -4.2854   19.7731 C   0  0  0  0  0  0  0  0  0  0  0  0
   14.7570   -3.5198   18.8172 C   0  0  0  0  0  0  0  0  0  0  0  0
   14.1108   -3.0392   17.5005 C   0  0  0  0  0  0  0  0  0  0  0  0
   12.9393   -3.5861   16.9417 C   0  0  0  0  0  0  0  0  0  0  0  0
   12.3496   -3.1014   15.7524 C   0  0  0  0  0  0  0  0  0  0  0  0
   13.0229   -2.0870   15.0673 C   0  0  0  0  0  0  0  0  0  0  0  0
   12.7485   -1.4512   13.8609 N   0  0  0  0  0  0  0  0  0  0  0  0
   13.7924   -0.6278   13.5853 C   0  0  0  0  0  0  0  0  0  0  0  0
   14.6522   -0.6082   14.6401 C   0  0  0  0  0  0  0  0  0  0  0  0
   14.2166   -1.5502   15.5637 C   0  0  0  0  0  0  0  0  0  0  0  0
   14.7366   -2.0126   16.7756 C   0  0  0  0  0  0  0  0  0  0  0  0
   15.7963    0.2906   14.4190 C   0  0  0  0  0  0  0  0  0  0  0  0
   15.7195    0.4993   12.8776 C   0  0  0  0  0  0  0  0  0  0  0  0
   14.2414    0.1865   12.4444 C   0  0  0  0  0  0  0  0  0  0  0  0
   15.4050   -2.3753   19.6438 C   0  0  0  0  0  0  0  0  0  0  0  0
   16.9088   -2.4613   19.4002 C   0  0  0  0  0  0  0  0  0  0  0  0
   17.0927   -3.5591   18.3746 C   0  0  0  0  0  0  0  0  0  0  0  0
   15.9076   -4.3963   18.5227 N   0  0  0  0  0  0  0  0  0  0  0  0
   14.3846   -4.7314   20.6043 H   0  0  0  0  0  0  0  0  0  0  0  0
   13.2666   -5.0912   19.3023 H   0  0  0  0  0  0  0  0  0  0  0  0
   13.0847   -3.6230   20.2252 H   0  0  0  0  0  0  0  0  0  0  0  0
   12.4339   -4.4114   17.4323 H   0  0  0  0  0  0  0  0  0  0  0  0
   11.4364   -3.5406   15.3640 H   0  0  0  0  0  0  0  0  0  0  0  0
   11.9421   -1.6396   13.2793 H   0  0  0  0  0  0  0  0  0  0  0  0
   15.6503   -1.5443   17.1220 H   0  0  0  0  0  0  0  0  0  0  0  0
   15.6515    1.2399   14.9446 H   0  0  0  0  0  0  0  0  0  0  0  0
   16.7537   -0.1475   14.7133 H   0  0  0  0  0  0  0  0  0  0  0  0
   16.0333    1.5036   12.5762 H   0  0  0  0  0  0  0  0  0  0  0  0
   16.3902   -0.2172   12.3845 H   0  0  0  0  0  0  0  0  0  0  0  0
   14.2163   -0.3495   11.4925 H   0  0  0  0  0  0  0  0  0  0  0  0
   13.6594    1.1100   12.3670 H   0  0  0  0  0  0  0  0  0  0  0  0
   15.0158   -1.3833   19.3876 H   0  0  0  0  0  0  0  0  0  0  0  0
   15.2314   -2.4965   20.7213 H   0  0  0  0  0  0  0  0  0  0  0  0
   17.4183   -2.7216   20.3357 H   0  0  0  0  0  0  0  0  0  0  0  0
   17.3199   -1.5081   19.0529 H   0  0  0  0  0  0  0  0  0  0  0  0
   18.0023   -4.1364   18.5676 H   0  0  0  0  0  0  0  0  0  0  0  0
   17.1776   -3.1570   17.3606 H   0  0  0  0  0  0  0  0  0  0  0  0
   15.7437   -4.8877   17.6518 H   0  0  0  0  0  0  0  0  0  0  0  0
  1  2  1  0
  2  3  1  0
  3  4  2  0
  4  5  1  0
  5  6  2  0
  6  7  1  0
  7  8  1  0
  8  9  2  0
  9 10  1  0
 10 11  2  0
  9 12  1  0
 12 13  1  0
 13 14  1  0
  2 15  1  0
 15 16  1  0
 16 17  1  0
 17 18  1  0
 18  2  1  0
 11  3  1  0
 10  6  1  0
 14  8  1  0
  1 19  1  0
  1 20  1  0
  1 21  1  0
  4 22  1  0
  5 23  1  0
  7 24  1  0
 11 25  1  0
 12 26  1  0
 12 27  1  0
 13 28  1  0
 13 29  1  0
 14 30  1  0
 14 31  1  0
 15 32  1  0
 15 33  1  0
 16 34  1  0
 16 35  1  0
 17 36  1  0
 17 37  1  0
 18 38  1  0
M  END
>  <Energy>  (125) 
51.458119512070944

>  <compound_id>  (125) 
51686

>  <target_id>  (125) 
1

>  <reference_id>  (125) 
124

>  <inspiration_ids>  (125) 
[124, 97]

>  <energy_score>  (125) 
-25.748950571545606

>  <distance_score>  (125) 
1.698120148533967

>  <path>  (125) 
/opt/xchem-fragalysis-2/maxwin/BulkDock/SCRATCH/511024/C51686-P124/C51686-P124.minimised.mol

>  <scratch_subdir>  (125) 
/opt/xchem-fragalysis-2/maxwin/BulkDock/SCRATCH/511024/C51686-P124

>  <fragmenstein_runtime>  (125) 
1.8468868732452393

>  <fragmenstein_outcome>  (125) 
too moved

>  <fragmenstein_mode>  (125) 
expansion

>  <fragmenstein_error>  (125) 


$$$$
C51686-P97
     RDKit          3D

 38 41  0  0  0  0  0  0  0  0999 V2000
   13.7735   -4.4601   19.4284 C   0  0  0  0  0  0  0  0  0  0  0  0
   14.6690   -3.8598   18.3397 C   0  0  0  0  0  0  0  0  0  0  0  0
   13.8786   -3.0407   17.3053 C   0  0  0  0  0  0  0  0  0  0  0  0
   12.7126   -3.5458   16.6893 C   0  0  0  0  0  0  0  0  0  0  0  0
   12.0856   -2.9122   15.6006 C   0  0  0  0  0  0  0  0  0  0  0  0
   12.7297   -1.7959   15.0680 C   0  0  0  0  0  0  0  0  0  0  0  0
   12.4882   -1.0840   13.8974 N   0  0  0  0  0  0  0  0  0  0  0  0
   13.5486   -0.2577   13.7017 C   0  0  0  0  0  0  0  0  0  0  0  0
   14.3431   -0.2617   14.8086 C   0  0  0  0  0  0  0  0  0  0  0  0
   13.8749   -1.2562   15.6642 C   0  0  0  0  0  0  0  0  0  0  0  0
   14.4065   -1.8397   16.8167 C   0  0  0  0  0  0  0  0  0  0  0  0
   15.5428    0.5784   14.6417 C   0  0  0  0  0  0  0  0  0  0  0  0
   15.5813    0.7351   13.0915 C   0  0  0  0  0  0  0  0  0  0  0  0
   14.1132    0.5087   12.5760 C   0  0  0  0  0  0  0  0  0  0  0  0
   15.8373   -3.1388   19.0549 C   0  0  0  0  0  0  0  0  0  0  0  0
   17.0659   -3.3445   18.1751 C   0  0  0  0  0  0  0  0  0  0  0  0
   16.6257   -4.3222   17.1038 C   0  0  0  0  0  0  0  0  0  0  0  0
   15.3968   -4.9328   17.6250 N   0  0  0  0  0  0  0  0  0  0  0  0
   14.3427   -5.0967   20.1169 H   0  0  0  0  0  0  0  0  0  0  0  0
   12.9826   -5.0808   19.0184 H   0  0  0  0  0  0  0  0  0  0  0  0
   13.3032   -3.6741   20.0270 H   0  0  0  0  0  0  0  0  0  0  0  0
   12.2894   -4.4916   17.0222 H   0  0  0  0  0  0  0  0  0  0  0  0
   11.2144   -3.3494   15.1232 H   0  0  0  0  0  0  0  0  0  0  0  0
   11.7306   -1.2876   13.2565 H   0  0  0  0  0  0  0  0  0  0  0  0
   15.3185   -1.4086   17.2106 H   0  0  0  0  0  0  0  0  0  0  0  0
   15.4053    1.5510   15.1250 H   0  0  0  0  0  0  0  0  0  0  0  0
   16.4568    0.1096   15.0158 H   0  0  0  0  0  0  0  0  0  0  0  0
   15.9835    1.7037   12.7792 H   0  0  0  0  0  0  0  0  0  0  0  0
   16.2283   -0.0448   12.6675 H   0  0  0  0  0  0  0  0  0  0  0  0
   14.1085   -0.0393   11.6305 H   0  0  0  0  0  0  0  0  0  0  0  0
   13.5961    1.4655   12.4548 H   0  0  0  0  0  0  0  0  0  0  0  0
   15.6448   -2.0814   19.2639 H   0  0  0  0  0  0  0  0  0  0  0  0
   16.0518   -3.6025   20.0278 H   0  0  0  0  0  0  0  0  0  0  0  0
   17.8889   -3.7554   18.7710 H   0  0  0  0  0  0  0  0  0  0  0  0
   17.4133   -2.4040   17.7355 H   0  0  0  0  0  0  0  0  0  0  0  0
   17.3870   -5.0852   16.9153 H   0  0  0  0  0  0  0  0  0  0  0  0
   16.4359   -3.8061   16.1558 H   0  0  0  0  0  0  0  0  0  0  0  0
   14.8432   -5.2445   16.8263 H   0  0  0  0  0  0  0  0  0  0  0  0
  1  2  1  0
  2  3  1  0
  3  4  2  0
  4  5  1  0
  5  6  2  0
  6  7  1  0
  7  8  1  0
  8  9  2  0
  9 10  1  0
 10 11  2  0
  9 12  1  0
 12 13  1  0
 13 14  1  0
  2 15  1  0
 15 16  1  0
 16 17  1  0
 17 18  1  0
 18  2  1  0
 11  3  1  0
 10  6  1  0
 14  8  1  0
  1 19  1  0
  1 20  1  0
  1 21  1  0
  4 22  1  0
  5 23  1  0
  7 24  1  0
 11 25  1  0
 12 26  1  0
 12 27  1  0
 13 28  1  0
 13 29  1  0
 14 30  1  0
 14 31  1  0
 15 32  1  0
 15 33  1  0
 16 34  1  0
 16 35  1  0
 17 36  1  0
 17 37  1  0
 18 38  1  0
M  END
>  <Energy>  (126) 
52.83069117810993

>  <compound_id>  (126) 
51686

>  <target_id>  (126) 
1

>  <reference_id>  (126) 
97

>  <inspiration_ids>  (126) 
[124, 97]

>  <energy_score>  (126) 
-24.376378905506698

>  <distance_score>  (126) 
1.6655160696213824

>  <path>  (126) 
/opt/xchem-fragalysis-2/maxwin/BulkDock/SCRATCH/511024/C51686-P97/C51686-P97.minimised.mol

>  <scratch_subdir>  (126) 
/opt/xchem-fragalysis-2/maxwin/BulkDock/SCRATCH/511024/C51686-P97

>  <fragmenstein_runtime>  (126) 
1.725698709487915

>  <fragmenstein_outcome>  (126) 
too moved

>  <fragmenstein_mode>  (126) 
expansion

>  <fragmenstein_error>  (126) 


$$$$
C51687-P124
     RDKit          3D

 49 52  0  0  0  0  0  0  0  0999 V2000
   14.3443   -4.1163   22.4129 C   0  0  0  0  0  0  0  0  0  0  0  0
   15.6150   -3.5587   21.7745 C   0  0  0  0  0  0  0  0  0  0  0  0
   15.3454   -2.2748   20.9353 C   0  0  0  0  0  0  0  0  0  0  0  0
   16.2981   -1.0908   21.1217 C   0  0  0  0  0  0  0  0  0  0  0  0
   17.0297   -1.1444   19.8292 C   0  0  0  0  0  0  0  0  0  0  0  0
   16.4597   -2.4478   19.3385 C   0  0  0  0  0  0  0  0  0  0  0  0
   14.9462   -2.4203   19.4804 N   0  0  0  0  0  0  0  0  0  0  0  0
   14.3057   -3.5755   18.7458 C   0  0  0  0  0  0  0  0  0  0  0  0
   14.0408   -4.6605   19.1162 O   0  0  0  0  0  0  0  0  0  0  0  0
   13.8991   -3.1280   17.3665 C   0  0  0  0  0  0  0  0  0  0  0  0
   12.7589   -3.6802   16.7671 C   0  0  0  0  0  0  0  0  0  0  0  0
   12.2289   -3.1728   15.5707 C   0  0  0  0  0  0  0  0  0  0  0  0
   12.9748   -2.1820   14.9314 C   0  0  0  0  0  0  0  0  0  0  0  0
   12.8572   -1.6244   13.6799 N   0  0  0  0  0  0  0  0  0  0  0  0
   14.0451   -0.9955   13.3761 C   0  0  0  0  0  0  0  0  0  0  0  0
   14.6524   -0.6869   14.5737 C   0  0  0  0  0  0  0  0  0  0  0  0
   14.1089   -1.6128   15.4940 C   0  0  0  0  0  0  0  0  0  0  0  0
   14.5396   -2.0546   16.7462 C   0  0  0  0  0  0  0  0  0  0  0  0
   15.8685    0.1483   14.7474 C   0  0  0  0  0  0  0  0  0  0  0  0
   17.1270   -0.5608   14.2523 C   0  0  0  0  0  0  0  0  0  0  0  0
   16.9948   -1.2698   12.8943 C   0  0  0  0  0  0  0  0  0  0  0  0
   16.0849   -0.5548   11.8937 C   0  0  0  0  0  0  0  0  0  0  0  0
   14.5883   -0.8934   11.9946 C   0  0  0  0  0  0  0  0  0  0  0  0
   14.5711   -5.0378   22.9587 H   0  0  0  0  0  0  0  0  0  0  0  0
   13.9211   -3.4020   23.1266 H   0  0  0  0  0  0  0  0  0  0  0  0
   13.5815   -4.3453   21.6641 H   0  0  0  0  0  0  0  0  0  0  0  0
   16.3169   -3.3279   22.5842 H   0  0  0  0  0  0  0  0  0  0  0  0
   16.0617   -4.3644   21.1842 H   0  0  0  0  0  0  0  0  0  0  0  0
   14.4120   -1.8932   21.3657 H   0  0  0  0  0  0  0  0  0  0  0  0
   16.9513   -1.2026   21.9920 H   0  0  0  0  0  0  0  0  0  0  0  0
   15.7574   -0.1425   21.2193 H   0  0  0  0  0  0  0  0  0  0  0  0
   18.1165   -1.1725   19.9417 H   0  0  0  0  0  0  0  0  0  0  0  0
   16.7569   -0.3086   19.1763 H   0  0  0  0  0  0  0  0  0  0  0  0
   16.7039   -2.5490   18.2751 H   0  0  0  0  0  0  0  0  0  0  0  0
   16.9467   -3.3485   19.7393 H   0  0  0  0  0  0  0  0  0  0  0  0
   12.2454   -4.5005   17.2577 H   0  0  0  0  0  0  0  0  0  0  0  0
   11.3409   -3.6023   15.1197 H   0  0  0  0  0  0  0  0  0  0  0  0
   12.1531   -1.9082   13.0164 H   0  0  0  0  0  0  0  0  0  0  0  0
   15.3845   -1.5431   17.1764 H   0  0  0  0  0  0  0  0  0  0  0  0
   15.7347    1.0936   14.2065 H   0  0  0  0  0  0  0  0  0  0  0  0
   15.9977    0.4279   15.7997 H   0  0  0  0  0  0  0  0  0  0  0  0
   17.4516   -1.3019   14.9941 H   0  0  0  0  0  0  0  0  0  0  0  0
   17.9344    0.1800   14.1921 H   0  0  0  0  0  0  0  0  0  0  0  0
   16.6492   -2.3008   13.0416 H   0  0  0  0  0  0  0  0  0  0  0  0
   18.0012   -1.3522   12.4648 H   0  0  0  0  0  0  0  0  0  0  0  0
   16.2269    0.5302   11.9721 H   0  0  0  0  0  0  0  0  0  0  0  0
   16.4084   -0.8186   10.8782 H   0  0  0  0  0  0  0  0  0  0  0  0
   14.0176   -0.1476   11.4306 H   0  0  0  0  0  0  0  0  0  0  0  0
   14.4349   -1.8583   11.4962 H   0  0  0  0  0  0  0  0  0  0  0  0
  1  2  1  0
  2  3  1  0
  3  4  1  0
  4  5  1  0
  5  6  1  0
  6  7  1  0
  7  8  1  0
  8  9  2  0
  8 10  1  0
 10 11  2  0
 11 12  1  0
 12 13  2  0
 13 14  1  0
 14 15  1  0
 15 16  2  0
 16 17  1  0
 17 18  2  0
 16 19  1  0
 19 20  1  0
 20 21  1  0
 21 22  1  0
 22 23  1  0
  7  3  1  0
 18 10  1  0
 17 13  1  0
 23 15  1  0
  1 24  1  0
  1 25  1  0
  1 26  1  0
  2 27  1  0
  2 28  1  0
  3 29  1  0
  4 30  1  0
  4 31  1  0
  5 32  1  0
  5 33  1  0
  6 34  1  0
  6 35  1  0
 11 36  1  0
 12 37  1  0
 14 38  1  0
 18 39  1  0
 19 40  1  0
 19 41  1  0
 20 42  1  0
 20 43  1  0
 21 44  1  0
 21 45  1  0
 22 46  1  0
 22 47  1  0
 23 48  1  0
 23 49  1  0
M  END
>  <Energy>  (127) 
125.58203481486862

>  <compound_id>  (127) 
51687

>  <target_id>  (127) 
1

>  <reference_id>  (127) 
124

>  <inspiration_ids>  (127) 
[124, 97]

>  <energy_score>  (127) 
45.13860440523314

>  <distance_score>  (127) 
1.9864965261429564

>  <path>  (127) 
/opt/xchem-fragalysis-2/maxwin/BulkDock/SCRATCH/511024/C51687-P124/C51687-P124.minimised.mol

>  <scratch_subdir>  (127) 
/opt/xchem-fragalysis-2/maxwin/BulkDock/SCRATCH/511024/C51687-P124

>  <fragmenstein_runtime>  (127) 
7.016116380691528

>  <fragmenstein_outcome>  (127) 
too moved

>  <fragmenstein_mode>  (127) 
expansion

>  <fragmenstein_error>  (127) 


$$$$
C51687-P97
     RDKit          3D

 49 52  0  0  0  0  0  0  0  0999 V2000
   14.4782   -4.3272   22.2835 C   0  0  0  0  0  0  0  0  0  0  0  0
   15.6894   -3.6927   21.6017 C   0  0  0  0  0  0  0  0  0  0  0  0
   15.3311   -2.3598   20.8827 C   0  0  0  0  0  0  0  0  0  0  0  0
   16.2711   -1.1682   21.0883 C   0  0  0  0  0  0  0  0  0  0  0  0
   16.9049   -1.1044   19.7466 C   0  0  0  0  0  0  0  0  0  0  0  0
   16.3214   -2.3778   19.1985 C   0  0  0  0  0  0  0  0  0  0  0  0
   14.8248   -2.4126   19.4556 N   0  0  0  0  0  0  0  0  0  0  0  0
   14.1625   -3.5327   18.6863 C   0  0  0  0  0  0  0  0  0  0  0  0
   13.9585   -4.6500   18.9929 O   0  0  0  0  0  0  0  0  0  0  0  0
   13.6405   -2.9912   17.3789 C   0  0  0  0  0  0  0  0  0  0  0  0
   12.6125   -3.6566   16.7028 C   0  0  0  0  0  0  0  0  0  0  0  0
   12.0857   -3.1629   15.5013 C   0  0  0  0  0  0  0  0  0  0  0  0
   12.7824   -2.1072   14.9152 C   0  0  0  0  0  0  0  0  0  0  0  0
   12.7518   -1.6181   13.6300 N   0  0  0  0  0  0  0  0  0  0  0  0
   13.9207   -0.9239   13.4177 C   0  0  0  0  0  0  0  0  0  0  0  0
   14.3847   -0.5079   14.6467 C   0  0  0  0  0  0  0  0  0  0  0  0
   13.7857   -1.4062   15.5685 C   0  0  0  0  0  0  0  0  0  0  0  0
   14.1343   -1.7864   16.8638 C   0  0  0  0  0  0  0  0  0  0  0  0
   15.5689    0.3681   14.8726 C   0  0  0  0  0  0  0  0  0  0  0  0
   16.8720   -0.3153   14.4580 C   0  0  0  0  0  0  0  0  0  0  0  0
   17.0485   -0.4639   12.9423 C   0  0  0  0  0  0  0  0  0  0  0  0
   16.0680   -1.4123   12.2416 C   0  0  0  0  0  0  0  0  0  0  0  0
   14.6386   -0.8628   12.1172 C   0  0  0  0  0  0  0  0  0  0  0  0
   14.7628   -5.2771   22.7474 H   0  0  0  0  0  0  0  0  0  0  0  0
   14.0882   -3.6745   23.0714 H   0  0  0  0  0  0  0  0  0  0  0  0
   13.6704   -4.5246   21.5739 H   0  0  0  0  0  0  0  0  0  0  0  0
   16.4412   -3.5022   22.3763 H   0  0  0  0  0  0  0  0  0  0  0  0
   16.1118   -4.4395   20.9229 H   0  0  0  0  0  0  0  0  0  0  0  0
   14.4235   -2.0366   21.4085 H   0  0  0  0  0  0  0  0  0  0  0  0
   16.9895   -1.3269   21.8979 H   0  0  0  0  0  0  0  0  0  0  0  0
   15.7194   -0.2448   21.2977 H   0  0  0  0  0  0  0  0  0  0  0  0
   17.9973   -1.1163   19.7757 H   0  0  0  0  0  0  0  0  0  0  0  0
   16.5697   -0.2264   19.1843 H   0  0  0  0  0  0  0  0  0  0  0  0
   16.4683   -2.3738   18.1109 H   0  0  0  0  0  0  0  0  0  0  0  0
   16.8586   -3.2960   19.4764 H   0  0  0  0  0  0  0  0  0  0  0  0
   12.2009   -4.5710   17.1218 H   0  0  0  0  0  0  0  0  0  0  0  0
   11.2885   -3.6798   14.9790 H   0  0  0  0  0  0  0  0  0  0  0  0
   12.1656   -2.0179   12.9134 H   0  0  0  0  0  0  0  0  0  0  0  0
   14.8887   -1.2020   17.3678 H   0  0  0  0  0  0  0  0  0  0  0  0
   15.4429    1.3084   14.3220 H   0  0  0  0  0  0  0  0  0  0  0  0
   15.6283    0.6395   15.9334 H   0  0  0  0  0  0  0  0  0  0  0  0
   16.9595   -1.2990   14.9363 H   0  0  0  0  0  0  0  0  0  0  0  0
   17.7066    0.2900   14.8333 H   0  0  0  0  0  0  0  0  0  0  0  0
   18.0624   -0.8456   12.7660 H   0  0  0  0  0  0  0  0  0  0  0  0
   17.0075    0.5245   12.4683 H   0  0  0  0  0  0  0  0  0  0  0  0
   16.4452   -1.5814   11.2248 H   0  0  0  0  0  0  0  0  0  0  0  0
   16.0683   -2.3890   12.7413 H   0  0  0  0  0  0  0  0  0  0  0  0
   14.6501    0.1665   11.7411 H   0  0  0  0  0  0  0  0  0  0  0  0
   14.1109   -1.4687   11.3754 H   0  0  0  0  0  0  0  0  0  0  0  0
  1  2  1  0
  2  3  1  0
  3  4  1  0
  4  5  1  0
  5  6  1  0
  6  7  1  0
  7  8  1  0
  8  9  2  0
  8 10  1  0
 10 11  2  0
 11 12  1  0
 12 13  2  0
 13 14  1  0
 14 15  1  0
 15 16  2  0
 16 17  1  0
 17 18  2  0
 16 19  1  0
 19 20  1  0
 20 21  1  0
 21 22  1  0
 22 23  1  0
  7  3  1  0
 18 10  1  0
 17 13  1  0
 23 15  1  0
  1 24  1  0
  1 25  1  0
  1 26  1  0
  2 27  1  0
  2 28  1  0
  3 29  1  0
  4 30  1  0
  4 31  1  0
  5 32  1  0
  5 33  1  0
  6 34  1  0
  6 35  1  0
 11 36  1  0
 12 37  1  0
 14 38  1  0
 18 39  1  0
 19 40  1  0
 19 41  1  0
 20 42  1  0
 20 43  1  0
 21 44  1  0
 21 45  1  0
 22 46  1  0
 22 47  1  0
 23 48  1  0
 23 49  1  0
M  END
>  <Energy>  (128) 
122.19920556666932

>  <compound_id>  (128) 
51687

>  <target_id>  (128) 
1

>  <reference_id>  (128) 
97

>  <inspiration_ids>  (128) 
[124, 97]

>  <energy_score>  (128) 
41.75577515703213

>  <distance_score>  (128) 
1.8780204739352964

>  <path>  (128) 
/opt/xchem-fragalysis-2/maxwin/BulkDock/SCRATCH/511024/C51687-P97/C51687-P97.minimised.mol

>  <scratch_subdir>  (128) 
/opt/xchem-fragalysis-2/maxwin/BulkDock/SCRATCH/511024/C51687-P97

>  <fragmenstein_runtime>  (128) 
7.411068916320801

>  <fragmenstein_outcome>  (128) 
too moved

>  <fragmenstein_mode>  (128) 
expansion

>  <fragmenstein_error>  (128) 


$$$$
C51688-P124
     RDKit          3D

 52 56  0  0  0  0  0  0  0  0999 V2000
   14.7823    1.0927   15.0149 O   0  0  0  0  0  0  0  0  0  0  0  0
   15.3365    0.3023   15.6657 C   0  0  0  0  0  0  0  0  0  0  0  0
   14.9146   -1.1262   16.0847 N   0  0  0  0  0  0  0  0  0  0  0  0
   13.8161   -1.8758   15.7261 C   0  0  0  0  0  0  0  0  0  0  0  0
   12.9229   -1.3757   14.7866 C   0  0  0  0  0  0  0  0  0  0  0  0
   11.7267   -2.0295   14.5798 C   0  0  0  0  0  0  0  0  0  0  0  0
   11.4288   -3.1773   15.2932 C   0  0  0  0  0  0  0  0  0  0  0  0
   12.3564   -3.7082   16.1922 C   0  0  0  0  0  0  0  0  0  0  0  0
   13.6008   -3.1056   16.3946 C   0  0  0  0  0  0  0  0  0  0  0  0
   14.5052   -3.7419   17.2420 N   0  0  0  0  0  0  0  0  0  0  0  0
   15.9280   -3.9006   16.9184 C   0  0  0  0  0  0  0  0  0  0  0  0
   16.6330   -3.8366   18.2739 C   0  0  0  0  0  0  0  0  0  0  0  0
   15.5612   -4.2113   19.2803 C   0  0  0  0  0  0  0  0  0  0  0  0
   14.3232   -3.5587   18.6815 C   0  0  0  0  0  0  0  0  0  0  0  0
   16.7006    0.4445   16.1994 C   0  0  0  0  0  0  0  0  0  0  0  0
   16.8819    0.7974   17.5349 C   0  0  0  0  0  0  0  0  0  0  0  0
   17.9279    0.2121   18.2519 C   0  0  0  0  0  0  0  0  0  0  0  0
   18.6423   -0.8327   17.6219 C   0  0  0  0  0  0  0  0  0  0  0  0
   19.5761   -1.7262   18.1153 N   0  0  0  0  0  0  0  0  0  0  0  0
   19.8050   -2.7134   17.1877 C   0  0  0  0  0  0  0  0  0  0  0  0
   19.1386   -2.3904   16.0282 C   0  0  0  0  0  0  0  0  0  0  0  0
   18.4345   -1.1913   16.2877 C   0  0  0  0  0  0  0  0  0  0  0  0
   17.5489   -0.4441   15.5213 C   0  0  0  0  0  0  0  0  0  0  0  0
   19.1497   -3.2502   14.8071 C   0  0  0  0  0  0  0  0  0  0  0  0
   20.2814   -4.2951   14.8893 C   0  0  0  0  0  0  0  0  0  0  0  0
   20.3840   -4.9421   16.2856 C   0  0  0  0  0  0  0  0  0  0  0  0
   20.6695   -3.9066   17.3918 C   0  0  0  0  0  0  0  0  0  0  0  0
   15.5984   -1.5069   16.7216 H   0  0  0  0  0  0  0  0  0  0  0  0
   13.1061   -0.4470   14.2539 H   0  0  0  0  0  0  0  0  0  0  0  0
   11.0241   -1.5966   13.8856 H   0  0  0  0  0  0  0  0  0  0  0  0
   10.4858   -3.6790   15.1197 H   0  0  0  0  0  0  0  0  0  0  0  0
   12.1222   -4.6376   16.7024 H   0  0  0  0  0  0  0  0  0  0  0  0
   16.1093   -4.8654   16.4446 H   0  0  0  0  0  0  0  0  0  0  0  0
   16.3301   -3.1768   16.2134 H   0  0  0  0  0  0  0  0  0  0  0  0
   16.9482   -2.8120   18.4809 H   0  0  0  0  0  0  0  0  0  0  0  0
   17.5088   -4.4886   18.3252 H   0  0  0  0  0  0  0  0  0  0  0  0
   15.4501   -5.2986   19.3331 H   0  0  0  0  0  0  0  0  0  0  0  0
   15.7799   -3.8435   20.2868 H   0  0  0  0  0  0  0  0  0  0  0  0
   14.3252   -2.4924   18.9338 H   0  0  0  0  0  0  0  0  0  0  0  0
   13.4089   -4.0321   19.0511 H   0  0  0  0  0  0  0  0  0  0  0  0
   16.1679    1.4465   18.0346 H   0  0  0  0  0  0  0  0  0  0  0  0
   18.0880    0.4479   19.2996 H   0  0  0  0  0  0  0  0  0  0  0  0
   19.9421   -1.7125   19.0576 H   0  0  0  0  0  0  0  0  0  0  0  0
   17.3179   -0.7567   14.5040 H   0  0  0  0  0  0  0  0  0  0  0  0
   19.2771   -2.6407   13.9058 H   0  0  0  0  0  0  0  0  0  0  0  0
   18.1868   -3.7672   14.7236 H   0  0  0  0  0  0  0  0  0  0  0  0
   21.2387   -3.8126   14.6532 H   0  0  0  0  0  0  0  0  0  0  0  0
   20.1179   -5.0684   14.1302 H   0  0  0  0  0  0  0  0  0  0  0  0
   21.1730   -5.7026   16.2872 H   0  0  0  0  0  0  0  0  0  0  0  0
   19.4406   -5.4592   16.5049 H   0  0  0  0  0  0  0  0  0  0  0  0
   20.4937   -4.3555   18.3753 H   0  0  0  0  0  0  0  0  0  0  0  0
   21.7211   -3.6004   17.3451 H   0  0  0  0  0  0  0  0  0  0  0  0
  1  2  2  0
  2  3  1  0
  3  4  1  0
  4  5  2  0
  5  6  1  0
  6  7  2  0
  7  8  1  0
  8  9  2  0
  9 10  1  0
 10 11  1  0
 11 12  1  0
 12 13  1  0
 13 14  1  0
  2 15  1  0
 15 16  2  0
 16 17  1  0
 17 18  2  0
 18 19  1  0
 19 20  1  0
 20 21  2  0
 21 22  1  0
 22 23  2  0
 21 24  1  0
 24 25  1  0
 25 26  1  0
 26 27  1  0
  9  4  1  0
 14 10  1  0
 23 15  1  0
 22 18  1  0
 27 20  1  0
  3 28  1  0
  5 29  1  0
  6 30  1  0
  7 31  1  0
  8 32  1  0
 11 33  1  0
 11 34  1  0
 12 35  1  0
 12 36  1  0
 13 37  1  0
 13 38  1  0
 14 39  1  0
 14 40  1  0
 16 41  1  0
 17 42  1  0
 19 43  1  0
 23 44  1  0
 24 45  1  0
 24 46  1  0
 25 47  1  0
 25 48  1  0
 26 49  1  0
 26 50  1  0
 27 51  1  0
 27 52  1  0
M  END
>  <Energy>  (129) 
95.174746938235998

>  <compound_id>  (129) 
51688

>  <target_id>  (129) 
1

>  <reference_id>  (129) 
124

>  <inspiration_ids>  (129) 
[124, 97]

>  <energy_score>  (129) 
-4.9548595736509355

>  <distance_score>  (129) 
1.8849968746266763

>  <path>  (129) 
/opt/xchem-fragalysis-2/maxwin/BulkDock/SCRATCH/511024/C51688-P124/C51688-P124.minimised.mol

>  <scratch_subdir>  (129) 
/opt/xchem-fragalysis-2/maxwin/BulkDock/SCRATCH/511024/C51688-P124

>  <fragmenstein_runtime>  (129) 
65.79659032821655

>  <fragmenstein_outcome>  (129) 
too moved

>  <fragmenstein_mode>  (129) 
expansion

>  <fragmenstein_error>  (129) 


$$$$
C51688-P97
     RDKit          3D

 52 56  0  0  0  0  0  0  0  0999 V2000
   14.2681    1.0804   17.6664 O   0  0  0  0  0  0  0  0  0  0  0  0
   14.9032    0.1244   17.4614 C   0  0  0  0  0  0  0  0  0  0  0  0
   14.4781   -1.2681   16.9538 N   0  0  0  0  0  0  0  0  0  0  0  0
   13.2626   -1.7246   16.5241 C   0  0  0  0  0  0  0  0  0  0  0  0
   12.4211   -0.8663   15.8167 C   0  0  0  0  0  0  0  0  0  0  0  0
   11.3254   -1.3941   15.1607 C   0  0  0  0  0  0  0  0  0  0  0  0
   11.0718   -2.7553   15.2569 C   0  0  0  0  0  0  0  0  0  0  0  0
   11.8877   -3.5891   16.0244 C   0  0  0  0  0  0  0  0  0  0  0  0
   13.0258   -3.1080   16.6514 C   0  0  0  0  0  0  0  0  0  0  0  0
   13.8045   -4.0129   17.3841 N   0  0  0  0  0  0  0  0  0  0  0  0
   15.0539   -4.4606   16.7734 C   0  0  0  0  0  0  0  0  0  0  0  0
   15.9642   -4.8384   17.9460 C   0  0  0  0  0  0  0  0  0  0  0  0
   15.0883   -4.7664   19.1855 C   0  0  0  0  0  0  0  0  0  0  0  0
   14.0155   -3.7554   18.8106 C   0  0  0  0  0  0  0  0  0  0  0  0
   16.4012    0.1453   17.5810 C   0  0  0  0  0  0  0  0  0  0  0  0
   17.0258    1.3521   17.2935 C   0  0  0  0  0  0  0  0  0  0  0  0
   18.3288    1.3534   16.8002 C   0  0  0  0  0  0  0  0  0  0  0  0
   18.8867    0.1065   16.4618 C   0  0  0  0  0  0  0  0  0  0  0  0
   20.0447   -0.2064   15.7822 N   0  0  0  0  0  0  0  0  0  0  0  0
   20.0794   -1.5519   15.5263 C   0  0  0  0  0  0  0  0  0  0  0  0
   18.9759   -2.1409   16.0997 C   0  0  0  0  0  0  0  0  0  0  0  0
   18.2706   -1.1071   16.7792 C   0  0  0  0  0  0  0  0  0  0  0  0
   17.1217   -1.0633   17.5694 C   0  0  0  0  0  0  0  0  0  0  0  0
   18.6764   -3.5881   15.9122 C   0  0  0  0  0  0  0  0  0  0  0  0
   19.5285   -4.2102   14.7884 C   0  0  0  0  0  0  0  0  0  0  0  0
   20.9945   -3.7489   14.8463 C   0  0  0  0  0  0  0  0  0  0  0  0
   21.1188   -2.2231   14.6981 C   0  0  0  0  0  0  0  0  0  0  0  0
   15.2886   -1.8333   16.8128 H   0  0  0  0  0  0  0  0  0  0  0  0
   12.6521    0.1900   15.7155 H   0  0  0  0  0  0  0  0  0  0  0  0
   10.6753   -0.7539   14.5692 H   0  0  0  0  0  0  0  0  0  0  0  0
   10.2040   -3.1627   14.7581 H   0  0  0  0  0  0  0  0  0  0  0  0
   11.6177   -4.6286   16.1674 H   0  0  0  0  0  0  0  0  0  0  0  0
   14.8717   -5.3244   16.1387 H   0  0  0  0  0  0  0  0  0  0  0  0
   15.5234   -3.7039   16.1417 H   0  0  0  0  0  0  0  0  0  0  0  0
   16.4132   -5.8280   17.8156 H   0  0  0  0  0  0  0  0  0  0  0  0
   16.7879   -4.1280   18.0375 H   0  0  0  0  0  0  0  0  0  0  0  0
   14.6386   -5.7422   19.3857 H   0  0  0  0  0  0  0  0  0  0  0  0
   15.6466   -4.4702   20.0784 H   0  0  0  0  0  0  0  0  0  0  0  0
   14.3867   -2.7463   19.0122 H   0  0  0  0  0  0  0  0  0  0  0  0
   13.1084   -3.9261   19.3947 H   0  0  0  0  0  0  0  0  0  0  0  0
   16.4741    2.2884   17.3466 H   0  0  0  0  0  0  0  0  0  0  0  0
   18.8225    2.2827   16.5336 H   0  0  0  0  0  0  0  0  0  0  0  0
   20.7094    0.4730   15.4381 H   0  0  0  0  0  0  0  0  0  0  0  0
   16.7043   -1.9869   17.9405 H   0  0  0  0  0  0  0  0  0  0  0  0
   17.6235   -3.7290   15.6642 H   0  0  0  0  0  0  0  0  0  0  0  0
   18.8809   -4.1149   16.8514 H   0  0  0  0  0  0  0  0  0  0  0  0
   19.1065   -3.9293   13.8145 H   0  0  0  0  0  0  0  0  0  0  0  0
   19.4757   -5.3028   14.8543 H   0  0  0  0  0  0  0  0  0  0  0  0
   21.5749   -4.2415   14.0581 H   0  0  0  0  0  0  0  0  0  0  0  0
   21.4277   -4.0608   15.8056 H   0  0  0  0  0  0  0  0  0  0  0  0
   22.1233   -1.9011   14.9934 H   0  0  0  0  0  0  0  0  0  0  0  0
   20.9737   -1.9445   13.6475 H   0  0  0  0  0  0  0  0  0  0  0  0
  1  2  2  0
  2  3  1  0
  3  4  1  0
  4  5  2  0
  5  6  1  0
  6  7  2  0
  7  8  1  0
  8  9  2  0
  9 10  1  0
 10 11  1  0
 11 12  1  0
 12 13  1  0
 13 14  1  0
  2 15  1  0
 15 16  2  0
 16 17  1  0
 17 18  2  0
 18 19  1  0
 19 20  1  0
 20 21  2  0
 21 22  1  0
 22 23  2  0
 21 24  1  0
 24 25  1  0
 25 26  1  0
 26 27  1  0
  9  4  1  0
 14 10  1  0
 23 15  1  0
 22 18  1  0
 27 20  1  0
  3 28  1  0
  5 29  1  0
  6 30  1  0
  7 31  1  0
  8 32  1  0
 11 33  1  0
 11 34  1  0
 12 35  1  0
 12 36  1  0
 13 37  1  0
 13 38  1  0
 14 39  1  0
 14 40  1  0
 16 41  1  0
 17 42  1  0
 19 43  1  0
 23 44  1  0
 24 45  1  0
 24 46  1  0
 25 47  1  0
 25 48  1  0
 26 49  1  0
 26 50  1  0
 27 51  1  0
 27 52  1  0
M  END
>  <Energy>  (130) 
103.66075333731608

>  <compound_id>  (130) 
51688

>  <target_id>  (130) 
1

>  <reference_id>  (130) 
97

>  <inspiration_ids>  (130) 
[124, 97]

>  <energy_score>  (130) 
3.531146825426106

>  <distance_score>  (130) 
2.397264961074581

>  <path>  (130) 
/opt/xchem-fragalysis-2/maxwin/BulkDock/SCRATCH/511024/C51688-P97/C51688-P97.minimised.mol

>  <scratch_subdir>  (130) 
/opt/xchem-fragalysis-2/maxwin/BulkDock/SCRATCH/511024/C51688-P97

>  <fragmenstein_runtime>  (130) 
64.7025957107544

>  <fragmenstein_outcome>  (130) 
too moved

>  <fragmenstein_mode>  (130) 
expansion

>  <fragmenstein_error>  (130) 


$$$$
C51690-P124
     RDKit          3D

 51 54  0  0  0  0  0  0  0  0999 V2000
   17.5824   -2.8215   15.3716 C   0  0  0  0  0  0  0  0  0  0  0  0
   18.3778   -4.0999   15.5417 C   0  0  0  0  0  0  0  0  0  0  0  0
   17.9048   -4.7890   16.7348 N   0  0  0  0  0  0  0  0  0  0  0  0
   18.1065   -6.2384   16.6844 C   0  0  0  0  0  0  0  0  0  0  0  0
   17.9257   -6.6735   18.1368 C   0  0  0  0  0  0  0  0  0  0  0  0
   18.0055   -5.3821   18.9658 C   0  0  0  0  0  0  0  0  0  0  0  0
   16.6370   -4.9540   19.5281 C   0  0  0  0  0  0  0  0  0  0  0  0
   15.7682   -4.3232   18.5664 N   0  0  0  0  0  0  0  0  0  0  0  0
   14.2715   -3.9975   18.6387 C   0  0  0  0  0  0  0  0  0  0  0  0
   13.5163   -4.1161   19.5139 O   0  0  0  0  0  0  0  0  0  0  0  0
   13.8130   -3.3410   17.3761 C   0  0  0  0  0  0  0  0  0  0  0  0
   12.6424   -3.7666   16.7430 C   0  0  0  0  0  0  0  0  0  0  0  0
   12.1654   -3.1500   15.5802 C   0  0  0  0  0  0  0  0  0  0  0  0
   12.9604   -2.1425   15.0339 C   0  0  0  0  0  0  0  0  0  0  0  0
   12.8507   -1.4767   13.8322 N   0  0  0  0  0  0  0  0  0  0  0  0
   13.9833   -0.7367   13.6414 C   0  0  0  0  0  0  0  0  0  0  0  0
   14.6433   -0.6377   14.8457 C   0  0  0  0  0  0  0  0  0  0  0  0
   14.1099   -1.6616   15.6661 C   0  0  0  0  0  0  0  0  0  0  0  0
   14.5205   -2.2431   16.8796 C   0  0  0  0  0  0  0  0  0  0  0  0
   15.8377    0.2272   15.0536 C   0  0  0  0  0  0  0  0  0  0  0  0
   16.2871    0.9172   13.7569 C   0  0  0  0  0  0  0  0  0  0  0  0
   15.9898    0.0919   12.4922 C   0  0  0  0  0  0  0  0  0  0  0  0
   14.4810   -0.1968   12.3535 C   0  0  0  0  0  0  0  0  0  0  0  0
   18.5823   -4.3738   17.9728 C   0  0  0  0  0  0  0  0  0  0  0  0
   16.5376   -3.0573   15.1612 H   0  0  0  0  0  0  0  0  0  0  0  0
   17.6488   -2.1862   16.2589 H   0  0  0  0  0  0  0  0  0  0  0  0
   17.9700   -2.2545   14.5187 H   0  0  0  0  0  0  0  0  0  0  0  0
   19.4536   -3.8933   15.5840 H   0  0  0  0  0  0  0  0  0  0  0  0
   18.2049   -4.7151   14.6498 H   0  0  0  0  0  0  0  0  0  0  0  0
   17.3842   -6.7275   16.0239 H   0  0  0  0  0  0  0  0  0  0  0  0
   19.1173   -6.4950   16.3422 H   0  0  0  0  0  0  0  0  0  0  0  0
   18.7348   -7.3572   18.4193 H   0  0  0  0  0  0  0  0  0  0  0  0
   16.9828   -7.2052   18.2911 H   0  0  0  0  0  0  0  0  0  0  0  0
   18.6872   -5.5337   19.8110 H   0  0  0  0  0  0  0  0  0  0  0  0
   16.1004   -5.7925   19.9844 H   0  0  0  0  0  0  0  0  0  0  0  0
   16.7905   -4.2104   20.3185 H   0  0  0  0  0  0  0  0  0  0  0  0
   16.1402   -4.0162   17.6676 H   0  0  0  0  0  0  0  0  0  0  0  0
   12.0860   -4.5997   17.1551 H   0  0  0  0  0  0  0  0  0  0  0  0
   11.2669   -3.5028   15.0845 H   0  0  0  0  0  0  0  0  0  0  0  0
   12.1321   -1.6629   13.1470 H   0  0  0  0  0  0  0  0  0  0  0  0
   15.3967   -1.8634   17.3953 H   0  0  0  0  0  0  0  0  0  0  0  0
   15.6179    0.9861   15.8137 H   0  0  0  0  0  0  0  0  0  0  0  0
   16.6672   -0.3650   15.4412 H   0  0  0  0  0  0  0  0  0  0  0  0
   15.7672    1.8806   13.6701 H   0  0  0  0  0  0  0  0  0  0  0  0
   17.3571    1.1476   13.8145 H   0  0  0  0  0  0  0  0  0  0  0  0
   16.3387    0.6328   11.6053 H   0  0  0  0  0  0  0  0  0  0  0  0
   16.5491   -0.8517   12.5356 H   0  0  0  0  0  0  0  0  0  0  0  0
   14.3177   -0.9103   11.5390 H   0  0  0  0  0  0  0  0  0  0  0  0
   13.9430    0.7260   12.1084 H   0  0  0  0  0  0  0  0  0  0  0  0
   18.3645   -3.3384   18.2537 H   0  0  0  0  0  0  0  0  0  0  0  0
   19.6710   -4.4917   17.8949 H   0  0  0  0  0  0  0  0  0  0  0  0
  1  2  1  0
  2  3  1  0
  3  4  1  0
  4  5  1  0
  5  6  1  0
  6  7  1  0
  7  8  1  0
  8  9  1  0
  9 10  2  0
  9 11  1  0
 11 12  2  0
 12 13  1  0
 13 14  2  0
 14 15  1  0
 15 16  1  0
 16 17  2  0
 17 18  1  0
 18 19  2  0
 17 20  1  0
 20 21  1  0
 21 22  1  0
 22 23  1  0
  6 24  1  0
 24  3  1  0
 19 11  1  0
 18 14  1  0
 23 16  1  0
  1 25  1  0
  1 26  1  0
  1 27  1  0
  2 28  1  0
  2 29  1  0
  4 30  1  0
  4 31  1  0
  5 32  1  0
  5 33  1  0
  6 34  1  0
  7 35  1  0
  7 36  1  0
  8 37  1  0
 12 38  1  0
 13 39  1  0
 15 40  1  0
 19 41  1  0
 20 42  1  0
 20 43  1  0
 21 44  1  0
 21 45  1  0
 22 46  1  0
 22 47  1  0
 23 48  1  0
 23 49  1  0
 24 50  1  0
 24 51  1  0
M  END
>  <Energy>  (131) 
44.60363761828151

>  <compound_id>  (131) 
51690

>  <target_id>  (131) 
1

>  <reference_id>  (131) 
124

>  <inspiration_ids>  (131) 
[124, 97]

>  <energy_score>  (131) 
-13.251795592476512

>  <distance_score>  (131) 
1.6104745617954284

>  <path>  (131) 
/opt/xchem-fragalysis-2/maxwin/BulkDock/SCRATCH/511024/C51690-P124/C51690-P124.minimised.mol

>  <scratch_subdir>  (131) 
/opt/xchem-fragalysis-2/maxwin/BulkDock/SCRATCH/511024/C51690-P124

>  <fragmenstein_runtime>  (131) 
10.201016664505005

>  <fragmenstein_outcome>  (131) 
too moved

>  <fragmenstein_mode>  (131) 
expansion

>  <fragmenstein_error>  (131) 


$$$$
C51690-P97
     RDKit          3D

 51 54  0  0  0  0  0  0  0  0999 V2000
   17.0551   -2.9732   15.5115 C   0  0  0  0  0  0  0  0  0  0  0  0
   18.2355   -3.9310   15.5983 C   0  0  0  0  0  0  0  0  0  0  0  0
   18.2447   -4.8340   16.7428 N   0  0  0  0  0  0  0  0  0  0  0  0
   17.1077   -5.7417   16.8367 C   0  0  0  0  0  0  0  0  0  0  0  0
   17.2198   -6.2754   18.2526 C   0  0  0  0  0  0  0  0  0  0  0  0
   17.7197   -5.0831   19.0664 C   0  0  0  0  0  0  0  0  0  0  0  0
   16.5972   -4.3253   19.7921 C   0  0  0  0  0  0  0  0  0  0  0  0
   15.6413   -3.7055   18.9095 N   0  0  0  0  0  0  0  0  0  0  0  0
   14.2194   -4.1418   18.5093 C   0  0  0  0  0  0  0  0  0  0  0  0
   13.5677   -5.0292   18.8886 O   0  0  0  0  0  0  0  0  0  0  0  0
   13.6373   -3.2766   17.4037 C   0  0  0  0  0  0  0  0  0  0  0  0
   12.5507   -3.7829   16.6721 C   0  0  0  0  0  0  0  0  0  0  0  0
   12.0226   -3.1277   15.5514 C   0  0  0  0  0  0  0  0  0  0  0  0
   12.7368   -2.0257   15.0938 C   0  0  0  0  0  0  0  0  0  0  0  0
   12.6568   -1.3562   13.8911 N   0  0  0  0  0  0  0  0  0  0  0  0
   13.7872   -0.5969   13.7547 C   0  0  0  0  0  0  0  0  0  0  0  0
   14.3647   -0.4501   14.9982 C   0  0  0  0  0  0  0  0  0  0  0  0
   13.7836   -1.4566   15.8152 C   0  0  0  0  0  0  0  0  0  0  0  0
   14.1617   -2.0269   17.0457 C   0  0  0  0  0  0  0  0  0  0  0  0
   15.5896    0.3684   15.2374 C   0  0  0  0  0  0  0  0  0  0  0  0
   16.1526    0.9689   13.9386 C   0  0  0  0  0  0  0  0  0  0  0  0
   15.8957    0.0994   12.6948 C   0  0  0  0  0  0  0  0  0  0  0  0
   14.3876   -0.1362   12.4762 C   0  0  0  0  0  0  0  0  0  0  0  0
   18.4685   -4.2136   18.0473 C   0  0  0  0  0  0  0  0  0  0  0  0
   16.1115   -3.5059   15.3764 H   0  0  0  0  0  0  0  0  0  0  0  0
   16.9951   -2.3366   16.3951 H   0  0  0  0  0  0  0  0  0  0  0  0
   17.1844   -2.3228   14.6410 H   0  0  0  0  0  0  0  0  0  0  0  0
   19.1656   -3.3491   15.5986 H   0  0  0  0  0  0  0  0  0  0  0  0
   18.2657   -4.5299   14.6797 H   0  0  0  0  0  0  0  0  0  0  0  0
   16.1475   -5.2378   16.7043 H   0  0  0  0  0  0  0  0  0  0  0  0
   17.1735   -6.5489   16.1003 H   0  0  0  0  0  0  0  0  0  0  0  0
   17.9686   -7.0776   18.2843 H   0  0  0  0  0  0  0  0  0  0  0  0
   16.2785   -6.6880   18.6258 H   0  0  0  0  0  0  0  0  0  0  0  0
   18.4167   -5.4467   19.8322 H   0  0  0  0  0  0  0  0  0  0  0  0
   16.0514   -5.0066   20.4534 H   0  0  0  0  0  0  0  0  0  0  0  0
   17.0261   -3.5249   20.4041 H   0  0  0  0  0  0  0  0  0  0  0  0
   15.9350   -2.9422   18.3251 H   0  0  0  0  0  0  0  0  0  0  0  0
   12.1063   -4.7332   16.9599 H   0  0  0  0  0  0  0  0  0  0  0  0
   11.2018   -3.5557   14.9850 H   0  0  0  0  0  0  0  0  0  0  0  0
   12.0094   -1.6077   13.1560 H   0  0  0  0  0  0  0  0  0  0  0  0
   14.9444   -1.5341   17.6053 H   0  0  0  0  0  0  0  0  0  0  0  0
   15.3671    1.1726   15.9481 H   0  0  0  0  0  0  0  0  0  0  0  0
   16.3628   -0.2513   15.6998 H   0  0  0  0  0  0  0  0  0  0  0  0
   15.6870    1.9497   13.7739 H   0  0  0  0  0  0  0  0  0  0  0  0
   17.2269    1.1530   14.0547 H   0  0  0  0  0  0  0  0  0  0  0  0
   16.3189    0.5857   11.8086 H   0  0  0  0  0  0  0  0  0  0  0  0
   16.4110   -0.8623   12.8105 H   0  0  0  0  0  0  0  0  0  0  0  0
   14.2447   -0.8792   11.6844 H   0  0  0  0  0  0  0  0  0  0  0  0
   13.9039    0.7944   12.1586 H   0  0  0  0  0  0  0  0  0  0  0  0
   18.1557   -3.1663   18.0975 H   0  0  0  0  0  0  0  0  0  0  0  0
   19.5432   -4.2297   18.2623 H   0  0  0  0  0  0  0  0  0  0  0  0
  1  2  1  0
  2  3  1  0
  3  4  1  0
  4  5  1  0
  5  6  1  0
  6  7  1  0
  7  8  1  0
  8  9  1  0
  9 10  2  0
  9 11  1  0
 11 12  2  0
 12 13  1  0
 13 14  2  0
 14 15  1  0
 15 16  1  0
 16 17  2  0
 17 18  1  0
 18 19  2  0
 17 20  1  0
 20 21  1  0
 21 22  1  0
 22 23  1  0
  6 24  1  0
 24  3  1  0
 19 11  1  0
 18 14  1  0
 23 16  1  0
  1 25  1  0
  1 26  1  0
  1 27  1  0
  2 28  1  0
  2 29  1  0
  4 30  1  0
  4 31  1  0
  5 32  1  0
  5 33  1  0
  6 34  1  0
  7 35  1  0
  7 36  1  0
  8 37  1  0
 12 38  1  0
 13 39  1  0
 15 40  1  0
 19 41  1  0
 20 42  1  0
 20 43  1  0
 21 44  1  0
 21 45  1  0
 22 46  1  0
 22 47  1  0
 23 48  1  0
 23 49  1  0
 24 50  1  0
 24 51  1  0
M  END
>  <Energy>  (132) 
51.124731142601739

>  <compound_id>  (132) 
51690

>  <target_id>  (132) 
1

>  <reference_id>  (132) 
97

>  <inspiration_ids>  (132) 
[124, 97]

>  <energy_score>  (132) 
-6.730702068156631

>  <distance_score>  (132) 
1.522824358734028

>  <path>  (132) 
/opt/xchem-fragalysis-2/maxwin/BulkDock/SCRATCH/511024/C51690-P97/C51690-P97.minimised.mol

>  <scratch_subdir>  (132) 
/opt/xchem-fragalysis-2/maxwin/BulkDock/SCRATCH/511024/C51690-P97

>  <fragmenstein_runtime>  (132) 
10.923901081085205

>  <fragmenstein_outcome>  (132) 
too moved

>  <fragmenstein_mode>  (132) 
expansion

>  <fragmenstein_error>  (132) 


$$$$
C51694-P124
     RDKit          3D

 50 53  0  0  0  0  0  0  0  0999 V2000
   13.9168   -4.3405   18.9362 O   0  0  0  0  0  0  0  0  0  0  0  0
   14.5961   -4.0161   18.0473 C   0  0  0  0  0  0  0  0  0  0  0  0
   16.1025   -4.2313   17.8123 N   0  0  0  0  0  0  0  0  0  0  0  0
   17.1096   -4.8081   18.6654 C   0  0  0  0  0  0  0  0  0  0  0  0
   17.6720   -3.7964   19.6542 C   0  0  0  0  0  0  0  0  0  0  0  0
   18.4898   -2.7096   18.9597 C   0  0  0  0  0  0  0  0  0  0  0  0
   18.5481   -2.5759   17.7912 O   0  0  0  0  0  0  0  0  0  0  0  0
   19.0794   -1.8614   20.0789 N   0  0  0  0  0  0  0  0  0  0  0  0
   20.4679   -2.3366   20.4548 C   0  0  0  0  0  0  0  0  0  0  0  0
   21.5209   -1.9474   19.4384 C   0  0  0  0  0  0  0  0  0  0  0  0
   21.0234   -0.5866   19.1135 C   0  0  0  0  0  0  0  0  0  0  0  0
   19.8190   -0.5555   20.0294 C   0  0  0  0  0  0  0  0  0  0  0  0
   13.9645   -3.2950   16.9049 C   0  0  0  0  0  0  0  0  0  0  0  0
   12.6852   -3.6660   16.4733 C   0  0  0  0  0  0  0  0  0  0  0  0
   12.0340   -2.9819   15.4378 C   0  0  0  0  0  0  0  0  0  0  0  0
   12.7144   -1.9084   14.8553 C   0  0  0  0  0  0  0  0  0  0  0  0
   12.3176   -1.0378   13.8602 N   0  0  0  0  0  0  0  0  0  0  0  0
   13.2888   -0.0921   13.6644 C   0  0  0  0  0  0  0  0  0  0  0  0
   14.3361   -0.3602   14.5199 C   0  0  0  0  0  0  0  0  0  0  0  0
   13.9876   -1.5106   15.2727 C   0  0  0  0  0  0  0  0  0  0  0  0
   14.6186   -2.2113   16.3190 C   0  0  0  0  0  0  0  0  0  0  0  0
   15.5557    0.4944   14.5904 C   0  0  0  0  0  0  0  0  0  0  0  0
   15.2995    1.8758   13.9603 C   0  0  0  0  0  0  0  0  0  0  0  0
   14.5557    1.7669   12.6174 C   0  0  0  0  0  0  0  0  0  0  0  0
   13.1800    1.0904   12.7651 C   0  0  0  0  0  0  0  0  0  0  0  0
   16.3867   -3.7443   16.9679 H   0  0  0  0  0  0  0  0  0  0  0  0
   17.8926   -5.2220   18.0224 H   0  0  0  0  0  0  0  0  0  0  0  0
   16.6366   -5.6266   19.2176 H   0  0  0  0  0  0  0  0  0  0  0  0
   16.8600   -3.3121   20.2095 H   0  0  0  0  0  0  0  0  0  0  0  0
   18.3131   -4.3234   20.3685 H   0  0  0  0  0  0  0  0  0  0  0  0
   20.7195   -2.0454   21.4894 H   0  0  0  0  0  0  0  0  0  0  0  0
   20.4323   -3.4338   20.4913 H   0  0  0  0  0  0  0  0  0  0  0  0
   22.5287   -1.9589   19.8624 H   0  0  0  0  0  0  0  0  0  0  0  0
   21.5019   -2.5988   18.5584 H   0  0  0  0  0  0  0  0  0  0  0  0
   20.7355   -0.5110   18.0596 H   0  0  0  0  0  0  0  0  0  0  0  0
   21.7367    0.2105   19.3404 H   0  0  0  0  0  0  0  0  0  0  0  0
   20.0264   -0.1676   21.0410 H   0  0  0  0  0  0  0  0  0  0  0  0
   19.0997    0.1578   19.6048 H   0  0  0  0  0  0  0  0  0  0  0  0
   12.1846   -4.5080   16.9453 H   0  0  0  0  0  0  0  0  0  0  0  0
   11.0472   -3.2819   15.1002 H   0  0  0  0  0  0  0  0  0  0  0  0
   11.4050   -1.0543   13.4194 H   0  0  0  0  0  0  0  0  0  0  0  0
   15.5793   -1.8578   16.6809 H   0  0  0  0  0  0  0  0  0  0  0  0
   16.3682   -0.0070   14.0507 H   0  0  0  0  0  0  0  0  0  0  0  0
   15.8797    0.6222   15.6292 H   0  0  0  0  0  0  0  0  0  0  0  0
   14.7018    2.4867   14.6492 H   0  0  0  0  0  0  0  0  0  0  0  0
   16.2543    2.3944   13.8180 H   0  0  0  0  0  0  0  0  0  0  0  0
   14.4263    2.7631   12.1794 H   0  0  0  0  0  0  0  0  0  0  0  0
   15.1723    1.1882   11.9172 H   0  0  0  0  0  0  0  0  0  0  0  0
   12.4689    1.8045   13.1963 H   0  0  0  0  0  0  0  0  0  0  0  0
   12.8098    0.8139   11.7756 H   0  0  0  0  0  0  0  0  0  0  0  0
  1  2  2  0
  2  3  1  0
  3  4  1  0
  4  5  1  0
  5  6  1  0
  6  7  2  0
  6  8  1  0
  8  9  1  0
  9 10  1  0
 10 11  1  0
 11 12  1  0
  2 13  1  0
 13 14  2  0
 14 15  1  0
 15 16  2  0
 16 17  1  0
 17 18  1  0
 18 19  2  0
 19 20  1  0
 20 21  2  0
 19 22  1  0
 22 23  1  0
 23 24  1  0
 24 25  1  0
 12  8  1  0
 21 13  1  0
 20 16  1  0
 25 18  1  0
  3 26  1  0
  4 27  1  0
  4 28  1  0
  5 29  1  0
  5 30  1  0
  9 31  1  0
  9 32  1  0
 10 33  1  0
 10 34  1  0
 11 35  1  0
 11 36  1  0
 12 37  1  0
 12 38  1  0
 14 39  1  0
 15 40  1  0
 17 41  1  0
 21 42  1  0
 22 43  1  0
 22 44  1  0
 23 45  1  0
 23 46  1  0
 24 47  1  0
 24 48  1  0
 25 49  1  0
 25 50  1  0
M  END
>  <Energy>  (133) 
86.776477715103198

>  <compound_id>  (133) 
51694

>  <target_id>  (133) 
1

>  <reference_id>  (133) 
124

>  <inspiration_ids>  (133) 
[124, 97]

>  <energy_score>  (133) 
34.4688764500431

>  <distance_score>  (133) 
4.2740805205192185

>  <path>  (133) 
/opt/xchem-fragalysis-2/maxwin/BulkDock/SCRATCH/511024/C51694-P124/C51694-P124.minimised.mol

>  <scratch_subdir>  (133) 
/opt/xchem-fragalysis-2/maxwin/BulkDock/SCRATCH/511024/C51694-P124

>  <fragmenstein_runtime>  (133) 
15.690404176712036

>  <fragmenstein_outcome>  (133) 
too moved

>  <fragmenstein_mode>  (133) 
expansion

>  <fragmenstein_error>  (133) 


$$$$
C51694-P97
     RDKit          3D

 50 53  0  0  0  0  0  0  0  0999 V2000
   13.8892   -5.1034   18.4906 O   0  0  0  0  0  0  0  0  0  0  0  0
   14.5101   -4.3487   17.8565 C   0  0  0  0  0  0  0  0  0  0  0  0
   16.0329   -4.1568   17.7437 N   0  0  0  0  0  0  0  0  0  0  0  0
   17.1119   -4.7898   18.4592 C   0  0  0  0  0  0  0  0  0  0  0  0
   18.0027   -5.6125   17.5411 C   0  0  0  0  0  0  0  0  0  0  0  0
   18.8599   -4.7257   16.6423 C   0  0  0  0  0  0  0  0  0  0  0  0
   18.8118   -3.5493   16.6407 O   0  0  0  0  0  0  0  0  0  0  0  0
   19.7666   -5.6748   15.8724 N   0  0  0  0  0  0  0  0  0  0  0  0
   19.1543   -6.0603   14.5412 C   0  0  0  0  0  0  0  0  0  0  0  0
   19.2368   -4.9522   13.5117 C   0  0  0  0  0  0  0  0  0  0  0  0
   20.5922   -4.4429   13.8385 C   0  0  0  0  0  0  0  0  0  0  0  0
   20.9298   -5.3946   14.9648 C   0  0  0  0  0  0  0  0  0  0  0  0
   13.7555   -3.4277   16.9377 C   0  0  0  0  0  0  0  0  0  0  0  0
   12.5169   -3.8546   16.4461 C   0  0  0  0  0  0  0  0  0  0  0  0
   11.7788   -3.0976   15.5277 C   0  0  0  0  0  0  0  0  0  0  0  0
   12.3193   -1.8806   15.1202 C   0  0  0  0  0  0  0  0  0  0  0  0
   11.8338   -0.9616   14.2128 N   0  0  0  0  0  0  0  0  0  0  0  0
   12.7004    0.0924   14.1322 C   0  0  0  0  0  0  0  0  0  0  0  0
   13.7655   -0.1491   14.9774 C   0  0  0  0  0  0  0  0  0  0  0  0
   13.5319   -1.3979   15.6162 C   0  0  0  0  0  0  0  0  0  0  0  0
   14.2450   -2.1726   16.5610 C   0  0  0  0  0  0  0  0  0  0  0  0
   14.9236    0.7849   15.0923 C   0  0  0  0  0  0  0  0  0  0  0  0
   14.5785    2.1691   14.5084 C   0  0  0  0  0  0  0  0  0  0  0  0
   13.8347    2.0661   13.1627 C   0  0  0  0  0  0  0  0  0  0  0  0
   12.5032    1.3032   13.2908 C   0  0  0  0  0  0  0  0  0  0  0  0
   16.2345   -3.4611   17.0351 H   0  0  0  0  0  0  0  0  0  0  0  0
   16.6652   -5.4388   19.2194 H   0  0  0  0  0  0  0  0  0  0  0  0
   17.6742   -4.0015   18.9697 H   0  0  0  0  0  0  0  0  0  0  0  0
   18.6783   -6.2213   18.1531 H   0  0  0  0  0  0  0  0  0  0  0  0
   17.3945   -6.2806   16.9221 H   0  0  0  0  0  0  0  0  0  0  0  0
   19.5528   -7.0267   14.1868 H   0  0  0  0  0  0  0  0  0  0  0  0
   18.0909   -6.2653   14.7241 H   0  0  0  0  0  0  0  0  0  0  0  0
   19.1445   -5.3299   12.4898 H   0  0  0  0  0  0  0  0  0  0  0  0
   18.4740   -4.1837   13.6744 H   0  0  0  0  0  0  0  0  0  0  0  0
   20.5532   -3.4035   14.1812 H   0  0  0  0  0  0  0  0  0  0  0  0
   21.3023   -4.5128   13.0101 H   0  0  0  0  0  0  0  0  0  0  0  0
   21.4259   -6.3251   14.6413 H   0  0  0  0  0  0  0  0  0  0  0  0
   21.6711   -4.8979   15.6054 H   0  0  0  0  0  0  0  0  0  0  0  0
   12.1212   -4.8193   16.7578 H   0  0  0  0  0  0  0  0  0  0  0  0
   10.8430   -3.4690   15.1240 H   0  0  0  0  0  0  0  0  0  0  0  0
   10.9651   -1.0718   13.6941 H   0  0  0  0  0  0  0  0  0  0  0  0
   15.1652   -1.7685   16.9682 H   0  0  0  0  0  0  0  0  0  0  0  0
   15.2286    0.8944   16.1389 H   0  0  0  0  0  0  0  0  0  0  0  0
   15.7730    0.3608   14.5431 H   0  0  0  0  0  0  0  0  0  0  0  0
   13.9479    2.7174   15.2202 H   0  0  0  0  0  0  0  0  0  0  0  0
   15.4988    2.7507   14.3828 H   0  0  0  0  0  0  0  0  0  0  0  0
   13.6430    3.0688   12.7642 H   0  0  0  0  0  0  0  0  0  0  0  0
   14.4812    1.5525   12.4393 H   0  0  0  0  0  0  0  0  0  0  0  0
   11.7566    1.9496   13.7676 H   0  0  0  0  0  0  0  0  0  0  0  0
   12.1280    1.0428   12.2965 H   0  0  0  0  0  0  0  0  0  0  0  0
  1  2  2  0
  2  3  1  0
  3  4  1  0
  4  5  1  0
  5  6  1  0
  6  7  2  0
  6  8  1  0
  8  9  1  0
  9 10  1  0
 10 11  1  0
 11 12  1  0
  2 13  1  0
 13 14  2  0
 14 15  1  0
 15 16  2  0
 16 17  1  0
 17 18  1  0
 18 19  2  0
 19 20  1  0
 20 21  2  0
 19 22  1  0
 22 23  1  0
 23 24  1  0
 24 25  1  0
 12  8  1  0
 21 13  1  0
 20 16  1  0
 25 18  1  0
  3 26  1  0
  4 27  1  0
  4 28  1  0
  5 29  1  0
  5 30  1  0
  9 31  1  0
  9 32  1  0
 10 33  1  0
 10 34  1  0
 11 35  1  0
 11 36  1  0
 12 37  1  0
 12 38  1  0
 14 39  1  0
 15 40  1  0
 17 41  1  0
 21 42  1  0
 22 43  1  0
 22 44  1  0
 23 45  1  0
 23 46  1  0
 24 47  1  0
 24 48  1  0
 25 49  1  0
 25 50  1  0
M  END
>  <Energy>  (134) 
86.978350782225107

>  <compound_id>  (134) 
51694

>  <target_id>  (134) 
1

>  <reference_id>  (134) 
97

>  <inspiration_ids>  (134) 
[124, 97]

>  <energy_score>  (134) 
34.670749517165376

>  <distance_score>  (134) 
3.676896890002624

>  <path>  (134) 
/opt/xchem-fragalysis-2/maxwin/BulkDock/SCRATCH/511024/C51694-P97/C51694-P97.minimised.mol

>  <scratch_subdir>  (134) 
/opt/xchem-fragalysis-2/maxwin/BulkDock/SCRATCH/511024/C51694-P97

>  <fragmenstein_runtime>  (134) 
14.706514120101929

>  <fragmenstein_outcome>  (134) 
too moved

>  <fragmenstein_mode>  (134) 
expansion

>  <fragmenstein_error>  (134) 


$$$$
C51695-P124
     RDKit          3D

 40 43  0  0  0  0  0  0  0  0999 V2000
   15.9504   -4.7431   18.0838 O   0  0  0  0  0  0  0  0  0  0  0  0
   15.2423   -3.7943   18.3934 C   0  0  0  0  0  0  0  0  0  0  0  0
   14.3811   -3.1632   17.3740 C   0  0  0  0  0  0  0  0  0  0  0  0
   13.1323   -3.6433   16.9687 C   0  0  0  0  0  0  0  0  0  0  0  0
   12.4677   -3.0890   15.8547 C   0  0  0  0  0  0  0  0  0  0  0  0
   13.1449   -2.0904   15.1373 C   0  0  0  0  0  0  0  0  0  0  0  0
   12.8606   -1.4682   13.9331 N   0  0  0  0  0  0  0  0  0  0  0  0
   13.9627   -0.7471   13.5400 C   0  0  0  0  0  0  0  0  0  0  0  0
   14.8288   -0.6643   14.6035 C   0  0  0  0  0  0  0  0  0  0  0  0
   14.3788   -1.5914   15.5576 C   0  0  0  0  0  0  0  0  0  0  0  0
   14.9930   -2.1185   16.6931 C   0  0  0  0  0  0  0  0  0  0  0  0
   16.1136    0.0817   14.5566 C   0  0  0  0  0  0  0  0  0  0  0  0
   16.6529    0.0775   13.1258 C   0  0  0  0  0  0  0  0  0  0  0  0
   15.5763    0.5498   12.1371 C   0  0  0  0  0  0  0  0  0  0  0  0
   14.2800   -0.2881   12.1632 C   0  0  0  0  0  0  0  0  0  0  0  0
   15.2676   -3.2041   19.6258 N   0  0  0  0  0  0  0  0  0  0  0  0
   14.4356   -3.6098   20.7373 C   0  0  0  0  0  0  0  0  0  0  0  0
   14.9465   -2.7631   21.8993 C   0  0  0  0  0  0  0  0  0  0  0  0
   15.4821   -1.5082   21.2075 C   0  0  0  0  0  0  0  0  0  0  0  0
   16.1354   -2.0951   19.9700 C   0  0  0  0  0  0  0  0  0  0  0  0
   12.6789   -4.4774   17.4931 H   0  0  0  0  0  0  0  0  0  0  0  0
   11.5195   -3.4911   15.5126 H   0  0  0  0  0  0  0  0  0  0  0  0
   12.0535   -1.6767   13.3597 H   0  0  0  0  0  0  0  0  0  0  0  0
   15.9941   -1.7956   16.9597 H   0  0  0  0  0  0  0  0  0  0  0  0
   15.9429    1.1120   14.8911 H   0  0  0  0  0  0  0  0  0  0  0  0
   16.8603   -0.3594   15.2248 H   0  0  0  0  0  0  0  0  0  0  0  0
   16.9784   -0.9334   12.8485 H   0  0  0  0  0  0  0  0  0  0  0  0
   17.5306    0.7302   13.0595 H   0  0  0  0  0  0  0  0  0  0  0  0
   15.3230    1.5914   12.3767 H   0  0  0  0  0  0  0  0  0  0  0  0
   15.9810    0.5579   11.1183 H   0  0  0  0  0  0  0  0  0  0  0  0
   14.4092   -1.1653   11.5183 H   0  0  0  0  0  0  0  0  0  0  0  0
   13.4605    0.3117   11.7556 H   0  0  0  0  0  0  0  0  0  0  0  0
   13.3946   -3.4163   20.4805 H   0  0  0  0  0  0  0  0  0  0  0  0
   14.5485   -4.6834   20.9176 H   0  0  0  0  0  0  0  0  0  0  0  0
   15.7733   -3.2835   22.3994 H   0  0  0  0  0  0  0  0  0  0  0  0
   14.1847   -2.5556   22.6534 H   0  0  0  0  0  0  0  0  0  0  0  0
   16.1826   -0.9448   21.8294 H   0  0  0  0  0  0  0  0  0  0  0  0
   14.6516   -0.8495   20.9278 H   0  0  0  0  0  0  0  0  0  0  0  0
   16.2265   -1.3723   19.1575 H   0  0  0  0  0  0  0  0  0  0  0  0
   17.1273   -2.5037   20.1930 H   0  0  0  0  0  0  0  0  0  0  0  0
  1  2  2  0
  2  3  1  0
  3  4  2  0
  4  5  1  0
  5  6  2  0
  6  7  1  0
  7  8  1  0
  8  9  2  0
  9 10  1  0
 10 11  2  0
  9 12  1  0
 12 13  1  0
 13 14  1  0
 14 15  1  0
  2 16  1  0
 16 17  1  0
 17 18  1  0
 18 19  1  0
 19 20  1  0
 11  3  1  0
 20 16  1  0
 10  6  1  0
 15  8  1  0
  4 21  1  0
  5 22  1  0
  7 23  1  0
 11 24  1  0
 12 25  1  0
 12 26  1  0
 13 27  1  0
 13 28  1  0
 14 29  1  0
 14 30  1  0
 15 31  1  0
 15 32  1  0
 17 33  1  0
 17 34  1  0
 18 35  1  0
 18 36  1  0
 19 37  1  0
 19 38  1  0
 20 39  1  0
 20 40  1  0
M  END
>  <Energy>  (135) 
56.918351342512402

>  <compound_id>  (135) 
51695

>  <target_id>  (135) 
1

>  <reference_id>  (135) 
124

>  <inspiration_ids>  (135) 
[124, 97]

>  <energy_score>  (135) 
2.413928925816535

>  <distance_score>  (135) 
2.5035982167129043

>  <path>  (135) 
/opt/xchem-fragalysis-2/maxwin/BulkDock/SCRATCH/511024/C51695-P124/C51695-P124.minimised.mol

>  <scratch_subdir>  (135) 
/opt/xchem-fragalysis-2/maxwin/BulkDock/SCRATCH/511024/C51695-P124

>  <fragmenstein_runtime>  (135) 
4.074908971786499

>  <fragmenstein_outcome>  (135) 
too moved

>  <fragmenstein_mode>  (135) 
expansion

>  <fragmenstein_error>  (135) 


$$$$
C51695-P97
     RDKit          3D

 40 43  0  0  0  0  0  0  0  0999 V2000
   13.9958   -5.2204   18.7054 O   0  0  0  0  0  0  0  0  0  0  0  0
   14.2868   -4.0401   18.5423 C   0  0  0  0  0  0  0  0  0  0  0  0
   13.7272   -3.2688   17.3894 C   0  0  0  0  0  0  0  0  0  0  0  0
   12.5933   -3.7415   16.7173 C   0  0  0  0  0  0  0  0  0  0  0  0
   12.0737   -3.0935   15.5862 C   0  0  0  0  0  0  0  0  0  0  0  0
   12.8308   -2.0427   15.0687 C   0  0  0  0  0  0  0  0  0  0  0  0
   12.7270   -1.3756   13.8641 N   0  0  0  0  0  0  0  0  0  0  0  0
   13.8928   -0.6844   13.6523 C   0  0  0  0  0  0  0  0  0  0  0  0
   14.5762   -0.6160   14.8469 C   0  0  0  0  0  0  0  0  0  0  0  0
   13.9623   -1.5483   15.7142 C   0  0  0  0  0  0  0  0  0  0  0  0
   14.3669   -2.1150   16.9309 C   0  0  0  0  0  0  0  0  0  0  0  0
   15.8804    0.0875   14.9878 C   0  0  0  0  0  0  0  0  0  0  0  0
   16.6361    0.0419   13.6544 C   0  0  0  0  0  0  0  0  0  0  0  0
   15.7471    0.5279   12.4975 C   0  0  0  0  0  0  0  0  0  0  0  0
   14.4384   -0.2720   12.3307 C   0  0  0  0  0  0  0  0  0  0  0  0
   15.1615   -3.3712   19.3674 N   0  0  0  0  0  0  0  0  0  0  0  0
   14.7474   -2.6574   20.5590 C   0  0  0  0  0  0  0  0  0  0  0  0
   16.0488   -2.1809   21.1897 C   0  0  0  0  0  0  0  0  0  0  0  0
   16.9751   -2.0575   19.9834 C   0  0  0  0  0  0  0  0  0  0  0  0
   16.5935   -3.2875   19.1652 C   0  0  0  0  0  0  0  0  0  0  0  0
   12.1009   -4.6441   17.0699 H   0  0  0  0  0  0  0  0  0  0  0  0
   11.2048   -3.4840   15.0659 H   0  0  0  0  0  0  0  0  0  0  0  0
   12.0205   -1.5855   13.1716 H   0  0  0  0  0  0  0  0  0  0  0  0
   15.2546   -1.7276   17.4115 H   0  0  0  0  0  0  0  0  0  0  0  0
   15.6966    1.1286   15.2789 H   0  0  0  0  0  0  0  0  0  0  0  0
   16.4975   -0.3676   15.7697 H   0  0  0  0  0  0  0  0  0  0  0  0
   16.9676   -0.9837   13.4467 H   0  0  0  0  0  0  0  0  0  0  0  0
   17.5345    0.6658   13.7192 H   0  0  0  0  0  0  0  0  0  0  0  0
   15.4921    1.5806   12.6794 H   0  0  0  0  0  0  0  0  0  0  0  0
   16.3093    0.5038   11.5568 H   0  0  0  0  0  0  0  0  0  0  0  0
   14.6419   -1.1719   11.7373 H   0  0  0  0  0  0  0  0  0  0  0  0
   13.7087    0.3298   11.7789 H   0  0  0  0  0  0  0  0  0  0  0  0
   14.1523   -1.7983   20.2463 H   0  0  0  0  0  0  0  0  0  0  0  0
   14.1557   -3.3055   21.2106 H   0  0  0  0  0  0  0  0  0  0  0  0
   16.4341   -2.9406   21.8804 H   0  0  0  0  0  0  0  0  0  0  0  0
   15.9323   -1.2432   21.7399 H   0  0  0  0  0  0  0  0  0  0  0  0
   18.0329   -2.0494   20.2590 H   0  0  0  0  0  0  0  0  0  0  0  0
   16.7504   -1.1395   19.4275 H   0  0  0  0  0  0  0  0  0  0  0  0
   16.8577   -3.2200   18.1072 H   0  0  0  0  0  0  0  0  0  0  0  0
   17.0415   -4.1972   19.5806 H   0  0  0  0  0  0  0  0  0  0  0  0
  1  2  2  0
  2  3  1  0
  3  4  2  0
  4  5  1  0
  5  6  2  0
  6  7  1  0
  7  8  1  0
  8  9  2  0
  9 10  1  0
 10 11  2  0
  9 12  1  0
 12 13  1  0
 13 14  1  0
 14 15  1  0
  2 16  1  0
 16 17  1  0
 17 18  1  0
 18 19  1  0
 19 20  1  0
 11  3  1  0
 20 16  1  0
 10  6  1  0
 15  8  1  0
  4 21  1  0
  5 22  1  0
  7 23  1  0
 11 24  1  0
 12 25  1  0
 12 26  1  0
 13 27  1  0
 13 28  1  0
 14 29  1  0
 14 30  1  0
 15 31  1  0
 15 32  1  0
 17 33  1  0
 17 34  1  0
 18 35  1  0
 18 36  1  0
 19 37  1  0
 19 38  1  0
 20 39  1  0
 20 40  1  0
M  END
>  <Energy>  (136) 
51.534420099139417

>  <compound_id>  (136) 
51695

>  <target_id>  (136) 
1

>  <reference_id>  (136) 
97

>  <inspiration_ids>  (136) 
[124, 97]

>  <energy_score>  (136) 
-2.970002317555469

>  <distance_score>  (136) 
2.5971904675885953

>  <path>  (136) 
/opt/xchem-fragalysis-2/maxwin/BulkDock/SCRATCH/511024/C51695-P97/C51695-P97.minimised.mol

>  <scratch_subdir>  (136) 
/opt/xchem-fragalysis-2/maxwin/BulkDock/SCRATCH/511024/C51695-P97

>  <fragmenstein_runtime>  (136) 
4.230200529098511

>  <fragmenstein_outcome>  (136) 
too moved

>  <fragmenstein_mode>  (136) 
expansion

>  <fragmenstein_error>  (136) 


$$$$
C51696-P124
     RDKit          3D

 43 46  0  0  0  0  0  0  0  0999 V2000
   14.0171   -4.8152   19.0275 O   0  0  0  0  0  0  0  0  0  0  0  0
   14.3082   -3.7404   18.7373 C   0  0  0  0  0  0  0  0  0  0  0  0
   13.9845   -3.2279   17.3689 C   0  0  0  0  0  0  0  0  0  0  0  0
   12.7828   -3.6114   16.7671 C   0  0  0  0  0  0  0  0  0  0  0  0
   12.3413   -3.0172   15.5820 C   0  0  0  0  0  0  0  0  0  0  0  0
   13.2011   -2.0976   14.9752 C   0  0  0  0  0  0  0  0  0  0  0  0
   13.0542   -1.3924   13.8062 N   0  0  0  0  0  0  0  0  0  0  0  0
   14.2105   -0.7145   13.5109 C   0  0  0  0  0  0  0  0  0  0  0  0
   15.0853   -0.8876   14.5697 C   0  0  0  0  0  0  0  0  0  0  0  0
   14.4489   -1.7637   15.4985 C   0  0  0  0  0  0  0  0  0  0  0  0
   14.8374   -2.3200   16.7312 C   0  0  0  0  0  0  0  0  0  0  0  0
   16.4679   -0.3248   14.6813 C   0  0  0  0  0  0  0  0  0  0  0  0
   17.2339   -0.4088   13.3624 C   0  0  0  0  0  0  0  0  0  0  0  0
   16.8738    0.6775   12.3456 C   0  0  0  0  0  0  0  0  0  0  0  0
   15.4126    1.1319   12.2939 C   0  0  0  0  0  0  0  0  0  0  0  0
   14.3848    0.0066   12.2179 C   0  0  0  0  0  0  0  0  0  0  0  0
   14.9742   -2.5673   19.5356 N   0  0  0  0  0  0  0  0  0  0  0  0
   15.5253   -2.4197   20.7318 C   0  0  0  0  0  0  0  0  0  0  0  0
   16.9007   -3.3754   20.8281 C   0  0  0  0  0  0  0  0  0  0  0  0
   16.0881   -3.9792   21.8334 C   0  0  0  0  0  0  0  0  0  0  0  0
   15.3054   -2.6694   21.4372 C   0  0  0  0  0  0  0  0  0  0  0  0
   12.1599   -4.3606   17.2455 H   0  0  0  0  0  0  0  0  0  0  0  0
   11.3927   -3.2941   15.1332 H   0  0  0  0  0  0  0  0  0  0  0  0
   12.2297   -1.4324   13.2233 H   0  0  0  0  0  0  0  0  0  0  0  0
   15.7899   -2.0501   17.1752 H   0  0  0  0  0  0  0  0  0  0  0  0
   17.0286   -0.8954   15.4313 H   0  0  0  0  0  0  0  0  0  0  0  0
   16.4234    0.7088   15.0436 H   0  0  0  0  0  0  0  0  0  0  0  0
   18.3089   -0.3314   13.5685 H   0  0  0  0  0  0  0  0  0  0  0  0
   17.0850   -1.3959   12.9049 H   0  0  0  0  0  0  0  0  0  0  0  0
   17.1784    0.3302   11.3502 H   0  0  0  0  0  0  0  0  0  0  0  0
   17.4879    1.5639   12.5516 H   0  0  0  0  0  0  0  0  0  0  0  0
   15.1984    1.7791   13.1543 H   0  0  0  0  0  0  0  0  0  0  0  0
   15.2963    1.7672   11.4064 H   0  0  0  0  0  0  0  0  0  0  0  0
   13.4239    0.4497   11.9294 H   0  0  0  0  0  0  0  0  0  0  0  0
   14.6597   -0.7068   11.4320 H   0  0  0  0  0  0  0  0  0  0  0  0
   15.3971   -1.0926   20.7703 H   0  0  0  0  0  0  0  0  0  0  0  0
   16.3979   -1.8075   20.1350 H   0  0  0  0  0  0  0  0  0  0  0  0
   17.7808   -2.8598   21.2346 H   0  0  0  0  0  0  0  0  0  0  0  0
   17.1066   -3.9798   19.9395 H   0  0  0  0  0  0  0  0  0  0  0  0
   15.5815   -4.9045   21.5484 H   0  0  0  0  0  0  0  0  0  0  0  0
   16.4713   -3.9687   22.8546 H   0  0  0  0  0  0  0  0  0  0  0  0
   15.2698   -1.7913   22.3508 H   0  0  0  0  0  0  0  0  0  0  0  0
   14.2059   -3.0820   21.7824 H   0  0  0  0  0  0  0  0  0  0  0  0
  1  2  2  0
  2  3  1  0
  3  4  2  0
  4  5  1  0
  5  6  2  0
  6  7  1  0
  7  8  1  0
  8  9  2  0
  9 10  1  0
 10 11  2  0
  9 12  1  0
 12 13  1  0
 13 14  1  0
 14 15  1  0
 15 16  1  0
  2 17  1  0
 17 18  1  0
 18 19  1  0
 19 20  1  0
 20 21  1  0
 11  3  1  0
 21 17  1  0
 10  6  1  0
 16  8  1  0
  4 22  1  0
  5 23  1  0
  7 24  1  0
 11 25  1  0
 12 26  1  0
 12 27  1  0
 13 28  1  0
 13 29  1  0
 14 30  1  0
 14 31  1  0
 15 32  1  0
 15 33  1  0
 16 34  1  0
 16 35  1  0
 18 36  1  0
 18 37  1  0
 19 38  1  0
 19 39  1  0
 20 40  1  0
 20 41  1  0
 21 42  1  0
 21 43  1  0
M  END
>  <Energy>  (137) 
755.11148096996101

>  <compound_id>  (137) 
51696

>  <target_id>  (137) 
1

>  <reference_id>  (137) 
124

>  <inspiration_ids>  (137) 
[124, 97]

>  <energy_score>  (137) 
704.2632125988786

>  <distance_score>  (137) 
2.8682981392723756

>  <path>  (137) 
/opt/xchem-fragalysis-2/maxwin/BulkDock/SCRATCH/511024/C51696-P124/C51696-P124.minimised.mol

>  <scratch_subdir>  (137) 
/opt/xchem-fragalysis-2/maxwin/BulkDock/SCRATCH/511024/C51696-P124

>  <fragmenstein_runtime>  (137) 
5.980271339416504

>  <fragmenstein_outcome>  (137) 
too moved

>  <fragmenstein_mode>  (137) 
expansion

>  <fragmenstein_error>  (137) 


$$$$
C51696-P97
     RDKit          3D

 43 46  0  0  0  0  0  0  0  0999 V2000
   15.8511   -2.4474   19.5586 O   0  0  0  0  0  0  0  0  0  0  0  0
   15.0306   -3.1400   19.1387 C   0  0  0  0  0  0  0  0  0  0  0  0
   14.4548   -2.8137   17.7862 C   0  0  0  0  0  0  0  0  0  0  0  0
   13.3074   -3.4239   17.2669 C   0  0  0  0  0  0  0  0  0  0  0  0
   12.7763   -3.0461   16.0248 C   0  0  0  0  0  0  0  0  0  0  0  0
   13.4824   -2.0915   15.2842 C   0  0  0  0  0  0  0  0  0  0  0  0
   13.2744   -1.6157   14.0076 N   0  0  0  0  0  0  0  0  0  0  0  0
   14.3337   -0.8277   13.6286 C   0  0  0  0  0  0  0  0  0  0  0  0
   15.1296   -0.6195   14.7368 C   0  0  0  0  0  0  0  0  0  0  0  0
   14.6359   -1.4745   15.7628 C   0  0  0  0  0  0  0  0  0  0  0  0
   15.1050   -1.8178   17.0421 C   0  0  0  0  0  0  0  0  0  0  0  0
   16.3554    0.2303   14.7736 C   0  0  0  0  0  0  0  0  0  0  0  0
   17.4253   -0.2355   13.7867 C   0  0  0  0  0  0  0  0  0  0  0  0
   17.0968    0.0609   12.3197 C   0  0  0  0  0  0  0  0  0  0  0  0
   15.9515   -0.7639   11.7231 C   0  0  0  0  0  0  0  0  0  0  0  0
   14.5590   -0.3768   12.2307 C   0  0  0  0  0  0  0  0  0  0  0  0
   14.3138   -4.4427   19.7189 N   0  0  0  0  0  0  0  0  0  0  0  0
   14.3080   -5.4034   21.3971 C   0  0  0  0  0  0  0  0  0  0  0  0
   13.8960   -4.4999   22.6154 C   0  0  0  0  0  0  0  0  0  0  0  0
   15.0161   -3.8402   22.0260 C   0  0  0  0  0  0  0  0  0  0  0  0
   14.7150   -5.0307   20.8518 C   0  0  0  0  0  0  0  0  0  0  0  0
   12.7911   -4.1928   17.8350 H   0  0  0  0  0  0  0  0  0  0  0  0
   11.8840   -3.5239   15.6334 H   0  0  0  0  0  0  0  0  0  0  0  0
   12.5246   -1.9220   13.4014 H   0  0  0  0  0  0  0  0  0  0  0  0
   16.0039   -1.3460   17.4303 H   0  0  0  0  0  0  0  0  0  0  0  0
   16.7846    0.2183   15.7822 H   0  0  0  0  0  0  0  0  0  0  0  0
   16.0818    1.2730   14.5703 H   0  0  0  0  0  0  0  0  0  0  0  0
   18.3581    0.2891   14.0295 H   0  0  0  0  0  0  0  0  0  0  0  0
   17.6260   -1.3067   13.9137 H   0  0  0  0  0  0  0  0  0  0  0  0
   17.9985   -0.1503   11.7308 H   0  0  0  0  0  0  0  0  0  0  0  0
   16.8909    1.1308   12.1924 H   0  0  0  0  0  0  0  0  0  0  0  0
   15.9635   -0.6067   10.6368 H   0  0  0  0  0  0  0  0  0  0  0  0
   16.1380   -1.8333   11.8847 H   0  0  0  0  0  0  0  0  0  0  0  0
   14.4075    0.7060   12.1559 H   0  0  0  0  0  0  0  0  0  0  0  0
   13.8286   -0.8501   11.5720 H   0  0  0  0  0  0  0  0  0  0  0  0
   14.8165   -6.5233   21.7483 H   0  0  0  0  0  0  0  0  0  0  0  0
   13.2152   -5.9483   21.2689 H   0  0  0  0  0  0  0  0  0  0  0  0
   14.0514   -4.9742   23.5850 H   0  0  0  0  0  0  0  0  0  0  0  0
   12.9227   -4.0229   22.4935 H   0  0  0  0  0  0  0  0  0  0  0  0
   15.9457   -3.9897   22.5918 H   0  0  0  0  0  0  0  0  0  0  0  0
   14.8294   -2.8021   21.7448 H   0  0  0  0  0  0  0  0  0  0  0  0
   15.4589   -5.9291   20.2276 H   0  0  0  0  0  0  0  0  0  0  0  0
   15.8809   -4.6865   20.6655 H   0  0  0  0  0  0  0  0  0  0  0  0
  1  2  2  0
  2  3  1  0
  3  4  2  0
  4  5  1  0
  5  6  2  0
  6  7  1  0
  7  8  1  0
  8  9  2  0
  9 10  1  0
 10 11  2  0
  9 12  1  0
 12 13  1  0
 13 14  1  0
 14 15  1  0
 15 16  1  0
  2 17  1  0
 17 18  1  0
 18 19  1  0
 19 20  1  0
 20 21  1  0
 11  3  1  0
 21 17  1  0
 10  6  1  0
 16  8  1  0
  4 22  1  0
  5 23  1  0
  7 24  1  0
 11 25  1  0
 12 26  1  0
 12 27  1  0
 13 28  1  0
 13 29  1  0
 14 30  1  0
 14 31  1  0
 15 32  1  0
 15 33  1  0
 16 34  1  0
 16 35  1  0
 18 36  1  0
 18 37  1  0
 19 38  1  0
 19 39  1  0
 20 40  1  0
 20 41  1  0
 21 42  1  0
 21 43  1  0
M  END
>  <Energy>  (138) 
758.64202911058987

>  <compound_id>  (138) 
51696

>  <target_id>  (138) 
1

>  <reference_id>  (138) 
97

>  <inspiration_ids>  (138) 
[124, 97]

>  <energy_score>  (138) 
707.7937607395156

>  <distance_score>  (138) 
3.380536347275681

>  <path>  (138) 
/opt/xchem-fragalysis-2/maxwin/BulkDock/SCRATCH/511024/C51696-P97/C51696-P97.minimised.mol

>  <scratch_subdir>  (138) 
/opt/xchem-fragalysis-2/maxwin/BulkDock/SCRATCH/511024/C51696-P97

>  <fragmenstein_runtime>  (138) 
5.867128610610962

>  <fragmenstein_outcome>  (138) 
too moved

>  <fragmenstein_mode>  (138) 
expansion

>  <fragmenstein_error>  (138) 


$$$$
C51700-P124
     RDKit          3D

 45 48  0  0  0  0  0  0  0  0999 V2000
   18.5667   -2.9705   14.1889 N   0  0  0  0  0  0  0  0  0  0  0  0
   17.3104   -2.8040   13.4429 C   0  0  0  0  0  0  0  0  0  0  0  0
   16.8392   -1.3492   13.3541 C   0  0  0  0  0  0  0  0  0  0  0  0
   17.8670   -0.3956   12.7456 C   0  0  0  0  0  0  0  0  0  0  0  0
   16.9951    0.7413   12.2323 C   0  0  0  0  0  0  0  0  0  0  0  0
   15.8147   -0.0058   11.6331 C   0  0  0  0  0  0  0  0  0  0  0  0
   15.6426   -1.1202   12.5364 N   0  0  0  0  0  0  0  0  0  0  0  0
   14.4835   -1.8715   12.6103 C   0  0  0  0  0  0  0  0  0  0  0  0
   14.3256   -2.8630   11.9166 O   0  0  0  0  0  0  0  0  0  0  0  0
   13.4865   -1.4519   13.6736 C   0  0  0  0  0  0  0  0  0  0  0  0
   13.2989   -0.0799   13.7290 C   0  0  0  0  0  0  0  0  0  0  0  0
   13.8433    0.6279   14.7947 C   0  0  0  0  0  0  0  0  0  0  0  0
   14.5253   -0.1257   15.7498 C   0  0  0  0  0  0  0  0  0  0  0  0
   15.3718    0.2683   16.7518 N   0  0  0  0  0  0  0  0  0  0  0  0
   15.9143   -0.8317   17.3423 C   0  0  0  0  0  0  0  0  0  0  0  0
   15.3571   -1.9608   16.7849 C   0  0  0  0  0  0  0  0  0  0  0  0
   14.4356   -1.5152   15.8100 C   0  0  0  0  0  0  0  0  0  0  0  0
   13.6239   -2.1538   14.8775 C   0  0  0  0  0  0  0  0  0  0  0  0
   15.8186   -3.3337   17.1172 C   0  0  0  0  0  0  0  0  0  0  0  0
   16.6593   -3.3067   18.3960 C   0  0  0  0  0  0  0  0  0  0  0  0
   17.6654   -2.1450   18.4252 C   0  0  0  0  0  0  0  0  0  0  0  0
   16.9647   -0.7889   18.3818 C   0  0  0  0  0  0  0  0  0  0  0  0
   18.7599   -3.9694   14.2577 H   0  0  0  0  0  0  0  0  0  0  0  0
   19.3319   -2.5742   13.6458 H   0  0  0  0  0  0  0  0  0  0  0  0
   16.5386   -3.3960   13.9402 H   0  0  0  0  0  0  0  0  0  0  0  0
   17.4493   -3.2057   12.4337 H   0  0  0  0  0  0  0  0  0  0  0  0
   16.6262   -0.9886   14.3591 H   0  0  0  0  0  0  0  0  0  0  0  0
   18.6101   -0.0544   13.4725 H   0  0  0  0  0  0  0  0  0  0  0  0
   18.3949   -0.8656   11.9065 H   0  0  0  0  0  0  0  0  0  0  0  0
   17.5068    1.3717   11.5001 H   0  0  0  0  0  0  0  0  0  0  0  0
   16.6674    1.3730   13.0668 H   0  0  0  0  0  0  0  0  0  0  0  0
   14.9116    0.6007   11.5409 H   0  0  0  0  0  0  0  0  0  0  0  0
   16.0600   -0.4142   10.6461 H   0  0  0  0  0  0  0  0  0  0  0  0
   12.9702    0.4671   12.8501 H   0  0  0  0  0  0  0  0  0  0  0  0
   13.8577    1.7122   14.7939 H   0  0  0  0  0  0  0  0  0  0  0  0
   15.6271    1.2267   16.9453 H   0  0  0  0  0  0  0  0  0  0  0  0
   13.5021   -3.2116   14.9723 H   0  0  0  0  0  0  0  0  0  0  0  0
   16.4197   -3.7286   16.2918 H   0  0  0  0  0  0  0  0  0  0  0  0
   14.9609   -4.0005   17.2515 H   0  0  0  0  0  0  0  0  0  0  0  0
   15.9969   -3.2239   19.2679 H   0  0  0  0  0  0  0  0  0  0  0  0
   17.1918   -4.2595   18.4975 H   0  0  0  0  0  0  0  0  0  0  0  0
   18.3460   -2.2408   17.5689 H   0  0  0  0  0  0  0  0  0  0  0  0
   18.2815   -2.2094   19.3292 H   0  0  0  0  0  0  0  0  0  0  0  0
   17.6945    0.0026   18.1788 H   0  0  0  0  0  0  0  0  0  0  0  0
   16.5041   -0.5762   19.3539 H   0  0  0  0  0  0  0  0  0  0  0  0
  1  2  1  0
  2  3  1  0
  3  4  1  0
  4  5  1  0
  5  6  1  0
  6  7  1  0
  7  8  1  0
  8  9  2  0
  8 10  1  0
 10 11  2  0
 11 12  1  0
 12 13  2  0
 13 14  1  0
 14 15  1  0
 15 16  2  0
 16 17  1  0
 17 18  2  0
 16 19  1  0
 19 20  1  0
 20 21  1  0
 21 22  1  0
  7  3  1  0
 18 10  1  0
 17 13  1  0
 22 15  1  0
  1 23  1  0
  1 24  1  0
  2 25  1  0
  2 26  1  0
  3 27  1  0
  4 28  1  0
  4 29  1  0
  5 30  1  0
  5 31  1  0
  6 32  1  0
  6 33  1  0
 11 34  1  0
 12 35  1  0
 14 36  1  0
 18 37  1  0
 19 38  1  0
 19 39  1  0
 20 40  1  0
 20 41  1  0
 21 42  1  0
 21 43  1  0
 22 44  1  0
 22 45  1  0
M  END
>  <Energy>  (139) 
110.75552491862079

>  <compound_id>  (139) 
51700

>  <target_id>  (139) 
1

>  <reference_id>  (139) 
124

>  <inspiration_ids>  (139) 
[124, 97]

>  <energy_score>  (139) 
15.584552148451507

>  <distance_score>  (139) 
2.7911837771618924

>  <path>  (139) 
/opt/xchem-fragalysis-2/maxwin/BulkDock/SCRATCH/511024/C51700-P124/C51700-P124.minimised.mol

>  <scratch_subdir>  (139) 
/opt/xchem-fragalysis-2/maxwin/BulkDock/SCRATCH/511024/C51700-P124

>  <fragmenstein_runtime>  (139) 
7.49955940246582

>  <fragmenstein_outcome>  (139) 
too moved

>  <fragmenstein_mode>  (139) 
expansion

>  <fragmenstein_error>  (139) 


$$$$
C51700-P97
     RDKit          3D

 45 48  0  0  0  0  0  0  0  0999 V2000
   19.1745   -2.8226   12.0872 N   0  0  0  0  0  0  0  0  0  0  0  0
   17.8239   -2.4264   12.5171 C   0  0  0  0  0  0  0  0  0  0  0  0
   17.4995   -0.9774   12.1267 C   0  0  0  0  0  0  0  0  0  0  0  0
   18.3176    0.0484   12.9349 C   0  0  0  0  0  0  0  0  0  0  0  0
   17.2862    0.9925   13.5531 C   0  0  0  0  0  0  0  0  0  0  0  0
   16.1397    0.9381   12.5643 C   0  0  0  0  0  0  0  0  0  0  0  0
   16.1317   -0.4593   12.2072 N   0  0  0  0  0  0  0  0  0  0  0  0
   14.9296   -1.0978   11.9986 C   0  0  0  0  0  0  0  0  0  0  0  0
   14.3911   -1.1504   10.9051 O   0  0  0  0  0  0  0  0  0  0  0  0
   14.2742   -1.6284   13.2250 C   0  0  0  0  0  0  0  0  0  0  0  0
   13.0970   -1.0055   13.6559 C   0  0  0  0  0  0  0  0  0  0  0  0
   12.7670   -0.9594   15.0112 C   0  0  0  0  0  0  0  0  0  0  0  0
   13.7364   -1.4507   15.8877 C   0  0  0  0  0  0  0  0  0  0  0  0
   13.9270   -1.2160   17.2211 N   0  0  0  0  0  0  0  0  0  0  0  0
   15.1319   -1.7143   17.6214 C   0  0  0  0  0  0  0  0  0  0  0  0
   15.6734   -2.4377   16.5852 C   0  0  0  0  0  0  0  0  0  0  0  0
   14.8305   -2.1981   15.4765 C   0  0  0  0  0  0  0  0  0  0  0  0
   15.0271   -2.3739   14.1158 C   0  0  0  0  0  0  0  0  0  0  0  0
   17.0485   -2.9980   16.6598 C   0  0  0  0  0  0  0  0  0  0  0  0
   17.8885   -2.0342   17.5130 C   0  0  0  0  0  0  0  0  0  0  0  0
   17.2549   -1.8452   18.9046 C   0  0  0  0  0  0  0  0  0  0  0  0
   15.8142   -1.3196   18.8774 C   0  0  0  0  0  0  0  0  0  0  0  0
   19.3372   -3.7886   12.3694 H   0  0  0  0  0  0  0  0  0  0  0  0
   19.2104   -2.8234   11.0669 H   0  0  0  0  0  0  0  0  0  0  0  0
   17.8003   -2.5415   13.5994 H   0  0  0  0  0  0  0  0  0  0  0  0
   17.1112   -3.1052   12.0448 H   0  0  0  0  0  0  0  0  0  0  0  0
   17.7625   -0.8616   11.0654 H   0  0  0  0  0  0  0  0  0  0  0  0
   18.9505   -0.4006   13.7071 H   0  0  0  0  0  0  0  0  0  0  0  0
   18.9756    0.6069   12.2576 H   0  0  0  0  0  0  0  0  0  0  0  0
   17.6725    2.0048   13.6990 H   0  0  0  0  0  0  0  0  0  0  0  0
   16.9675    0.6008   14.5270 H   0  0  0  0  0  0  0  0  0  0  0  0
   15.1865    1.2640   12.9900 H   0  0  0  0  0  0  0  0  0  0  0  0
   16.3524    1.5232   11.6626 H   0  0  0  0  0  0  0  0  0  0  0  0
   12.5030   -0.4152   12.9650 H   0  0  0  0  0  0  0  0  0  0  0  0
   11.9104   -0.3882   15.3516 H   0  0  0  0  0  0  0  0  0  0  0  0
   13.3809   -0.5571   17.7480 H   0  0  0  0  0  0  0  0  0  0  0  0
   15.8710   -2.9471   13.7879 H   0  0  0  0  0  0  0  0  0  0  0  0
   17.5002   -3.1076   15.6726 H   0  0  0  0  0  0  0  0  0  0  0  0
   17.0174   -3.9913   17.1222 H   0  0  0  0  0  0  0  0  0  0  0  0
   18.9007   -2.4387   17.6265 H   0  0  0  0  0  0  0  0  0  0  0  0
   17.9825   -1.0606   17.0148 H   0  0  0  0  0  0  0  0  0  0  0  0
   17.8779   -1.1792   19.5129 H   0  0  0  0  0  0  0  0  0  0  0  0
   17.2607   -2.8172   19.4160 H   0  0  0  0  0  0  0  0  0  0  0  0
   15.2625   -1.6804   19.7524 H   0  0  0  0  0  0  0  0  0  0  0  0
   15.8377   -0.2243   18.9379 H   0  0  0  0  0  0  0  0  0  0  0  0
  1  2  1  0
  2  3  1  0
  3  4  1  0
  4  5  1  0
  5  6  1  0
  6  7  1  0
  7  8  1  0
  8  9  2  0
  8 10  1  0
 10 11  2  0
 11 12  1  0
 12 13  2  0
 13 14  1  0
 14 15  1  0
 15 16  2  0
 16 17  1  0
 17 18  2  0
 16 19  1  0
 19 20  1  0
 20 21  1  0
 21 22  1  0
  7  3  1  0
 18 10  1  0
 17 13  1  0
 22 15  1  0
  1 23  1  0
  1 24  1  0
  2 25  1  0
  2 26  1  0
  3 27  1  0
  4 28  1  0
  4 29  1  0
  5 30  1  0
  5 31  1  0
  6 32  1  0
  6 33  1  0
 11 34  1  0
 12 35  1  0
 14 36  1  0
 18 37  1  0
 19 38  1  0
 19 39  1  0
 20 40  1  0
 20 41  1  0
 21 42  1  0
 21 43  1  0
 22 44  1  0
 22 45  1  0
M  END
>  <Energy>  (140) 
97.042014493683382

>  <compound_id>  (140) 
51700

>  <target_id>  (140) 
1

>  <reference_id>  (140) 
97

>  <inspiration_ids>  (140) 
[124, 97]

>  <energy_score>  (140) 
1.8710417235138834

>  <distance_score>  (140) 
2.6574191161157175

>  <path>  (140) 
/opt/xchem-fragalysis-2/maxwin/BulkDock/SCRATCH/511024/C51700-P97/C51700-P97.minimised.mol

>  <scratch_subdir>  (140) 
/opt/xchem-fragalysis-2/maxwin/BulkDock/SCRATCH/511024/C51700-P97

>  <fragmenstein_runtime>  (140) 
7.434386491775513

>  <fragmenstein_outcome>  (140) 
too moved

>  <fragmenstein_mode>  (140) 
expansion

>  <fragmenstein_error>  (140) 


$$$$
C51687-P124
     RDKit          3D

 49 52  0  0  0  0  0  0  0  0999 V2000
   14.3443   -4.1163   22.4129 C   0  0  0  0  0  0  0  0  0  0  0  0
   15.6150   -3.5587   21.7745 C   0  0  0  0  0  0  0  0  0  0  0  0
   15.3454   -2.2748   20.9353 C   0  0  0  0  0  0  0  0  0  0  0  0
   16.2981   -1.0908   21.1217 C   0  0  0  0  0  0  0  0  0  0  0  0
   17.0297   -1.1444   19.8292 C   0  0  0  0  0  0  0  0  0  0  0  0
   16.4597   -2.4478   19.3385 C   0  0  0  0  0  0  0  0  0  0  0  0
   14.9462   -2.4203   19.4804 N   0  0  0  0  0  0  0  0  0  0  0  0
   14.3057   -3.5755   18.7458 C   0  0  0  0  0  0  0  0  0  0  0  0
   14.0408   -4.6605   19.1162 O   0  0  0  0  0  0  0  0  0  0  0  0
   13.8991   -3.1280   17.3665 C   0  0  0  0  0  0  0  0  0  0  0  0
   12.7589   -3.6802   16.7671 C   0  0  0  0  0  0  0  0  0  0  0  0
   12.2289   -3.1728   15.5707 C   0  0  0  0  0  0  0  0  0  0  0  0
   12.9748   -2.1820   14.9314 C   0  0  0  0  0  0  0  0  0  0  0  0
   12.8572   -1.6244   13.6799 N   0  0  0  0  0  0  0  0  0  0  0  0
   14.0451   -0.9955   13.3761 C   0  0  0  0  0  0  0  0  0  0  0  0
   14.6524   -0.6869   14.5737 C   0  0  0  0  0  0  0  0  0  0  0  0
   14.1089   -1.6128   15.4940 C   0  0  0  0  0  0  0  0  0  0  0  0
   14.5396   -2.0546   16.7462 C   0  0  0  0  0  0  0  0  0  0  0  0
   15.8685    0.1483   14.7474 C   0  0  0  0  0  0  0  0  0  0  0  0
   17.1270   -0.5608   14.2523 C   0  0  0  0  0  0  0  0  0  0  0  0
   16.9948   -1.2698   12.8943 C   0  0  0  0  0  0  0  0  0  0  0  0
   16.0849   -0.5548   11.8937 C   0  0  0  0  0  0  0  0  0  0  0  0
   14.5883   -0.8934   11.9946 C   0  0  0  0  0  0  0  0  0  0  0  0
   14.5711   -5.0378   22.9587 H   0  0  0  0  0  0  0  0  0  0  0  0
   13.9211   -3.4020   23.1266 H   0  0  0  0  0  0  0  0  0  0  0  0
   13.5815   -4.3453   21.6641 H   0  0  0  0  0  0  0  0  0  0  0  0
   16.3169   -3.3279   22.5842 H   0  0  0  0  0  0  0  0  0  0  0  0
   16.0617   -4.3644   21.1842 H   0  0  0  0  0  0  0  0  0  0  0  0
   14.4120   -1.8932   21.3657 H   0  0  0  0  0  0  0  0  0  0  0  0
   16.9513   -1.2026   21.9920 H   0  0  0  0  0  0  0  0  0  0  0  0
   15.7574   -0.1425   21.2193 H   0  0  0  0  0  0  0  0  0  0  0  0
   18.1165   -1.1725   19.9417 H   0  0  0  0  0  0  0  0  0  0  0  0
   16.7569   -0.3086   19.1763 H   0  0  0  0  0  0  0  0  0  0  0  0
   16.7039   -2.5490   18.2751 H   0  0  0  0  0  0  0  0  0  0  0  0
   16.9467   -3.3485   19.7393 H   0  0  0  0  0  0  0  0  0  0  0  0
   12.2454   -4.5005   17.2577 H   0  0  0  0  0  0  0  0  0  0  0  0
   11.3409   -3.6023   15.1197 H   0  0  0  0  0  0  0  0  0  0  0  0
   12.1531   -1.9082   13.0164 H   0  0  0  0  0  0  0  0  0  0  0  0
   15.3845   -1.5431   17.1764 H   0  0  0  0  0  0  0  0  0  0  0  0
   15.7347    1.0936   14.2065 H   0  0  0  0  0  0  0  0  0  0  0  0
   15.9977    0.4279   15.7997 H   0  0  0  0  0  0  0  0  0  0  0  0
   17.4516   -1.3019   14.9941 H   0  0  0  0  0  0  0  0  0  0  0  0
   17.9344    0.1800   14.1921 H   0  0  0  0  0  0  0  0  0  0  0  0
   16.6492   -2.3008   13.0416 H   0  0  0  0  0  0  0  0  0  0  0  0
   18.0012   -1.3522   12.4648 H   0  0  0  0  0  0  0  0  0  0  0  0
   16.2269    0.5302   11.9721 H   0  0  0  0  0  0  0  0  0  0  0  0
   16.4084   -0.8186   10.8782 H   0  0  0  0  0  0  0  0  0  0  0  0
   14.0176   -0.1476   11.4306 H   0  0  0  0  0  0  0  0  0  0  0  0
   14.4349   -1.8583   11.4962 H   0  0  0  0  0  0  0  0  0  0  0  0
  1  2  1  0
  2  3  1  0
  3  4  1  0
  4  5  1  0
  5  6  1  0
  6  7  1  0
  7  8  1  0
  8  9  2  0
  8 10  1  0
 10 11  2  0
 11 12  1  0
 12 13  2  0
 13 14  1  0
 14 15  1  0
 15 16  2  0
 16 17  1  0
 17 18  2  0
 16 19  1  0
 19 20  1  0
 20 21  1  0
 21 22  1  0
 22 23  1  0
  7  3  1  0
 18 10  1  0
 17 13  1  0
 23 15  1  0
  1 24  1  0
  1 25  1  0
  1 26  1  0
  2 27  1  0
  2 28  1  0
  3 29  1  0
  4 30  1  0
  4 31  1  0
  5 32  1  0
  5 33  1  0
  6 34  1  0
  6 35  1  0
 11 36  1  0
 12 37  1  0
 14 38  1  0
 18 39  1  0
 19 40  1  0
 19 41  1  0
 20 42  1  0
 20 43  1  0
 21 44  1  0
 21 45  1  0
 22 46  1  0
 22 47  1  0
 23 48  1  0
 23 49  1  0
M  END
>  <Energy>  (141) 
125.58203481486862

>  <compound_id>  (141) 
51687

>  <target_id>  (141) 
1

>  <reference_id>  (141) 
124

>  <inspiration_ids>  (141) 
[124, 97]

>  <energy_score>  (141) 
45.13860440523314

>  <distance_score>  (141) 
1.9864965261429564

>  <path>  (141) 
/opt/xchem-fragalysis-2/maxwin/BulkDock/SCRATCH/511024/C51687-P124/C51687-P124.minimised.mol

>  <scratch_subdir>  (141) 
/opt/xchem-fragalysis-2/maxwin/BulkDock/SCRATCH/511024/C51687-P124

>  <fragmenstein_runtime>  (141) 
7.206956624984741

>  <fragmenstein_outcome>  (141) 
too moved

>  <fragmenstein_mode>  (141) 
expansion

>  <fragmenstein_error>  (141) 


$$$$
C51687-P97
     RDKit          3D

 49 52  0  0  0  0  0  0  0  0999 V2000
   14.4782   -4.3272   22.2835 C   0  0  0  0  0  0  0  0  0  0  0  0
   15.6894   -3.6927   21.6017 C   0  0  0  0  0  0  0  0  0  0  0  0
   15.3311   -2.3598   20.8827 C   0  0  0  0  0  0  0  0  0  0  0  0
   16.2711   -1.1682   21.0883 C   0  0  0  0  0  0  0  0  0  0  0  0
   16.9049   -1.1044   19.7466 C   0  0  0  0  0  0  0  0  0  0  0  0
   16.3214   -2.3778   19.1985 C   0  0  0  0  0  0  0  0  0  0  0  0
   14.8248   -2.4126   19.4556 N   0  0  0  0  0  0  0  0  0  0  0  0
   14.1625   -3.5327   18.6863 C   0  0  0  0  0  0  0  0  0  0  0  0
   13.9585   -4.6500   18.9929 O   0  0  0  0  0  0  0  0  0  0  0  0
   13.6405   -2.9912   17.3789 C   0  0  0  0  0  0  0  0  0  0  0  0
   12.6125   -3.6566   16.7028 C   0  0  0  0  0  0  0  0  0  0  0  0
   12.0857   -3.1629   15.5013 C   0  0  0  0  0  0  0  0  0  0  0  0
   12.7824   -2.1072   14.9152 C   0  0  0  0  0  0  0  0  0  0  0  0
   12.7518   -1.6181   13.6300 N   0  0  0  0  0  0  0  0  0  0  0  0
   13.9207   -0.9239   13.4177 C   0  0  0  0  0  0  0  0  0  0  0  0
   14.3847   -0.5079   14.6467 C   0  0  0  0  0  0  0  0  0  0  0  0
   13.7857   -1.4062   15.5685 C   0  0  0  0  0  0  0  0  0  0  0  0
   14.1343   -1.7864   16.8638 C   0  0  0  0  0  0  0  0  0  0  0  0
   15.5689    0.3681   14.8726 C   0  0  0  0  0  0  0  0  0  0  0  0
   16.8720   -0.3153   14.4580 C   0  0  0  0  0  0  0  0  0  0  0  0
   17.0485   -0.4639   12.9423 C   0  0  0  0  0  0  0  0  0  0  0  0
   16.0680   -1.4123   12.2416 C   0  0  0  0  0  0  0  0  0  0  0  0
   14.6386   -0.8628   12.1172 C   0  0  0  0  0  0  0  0  0  0  0  0
   14.7628   -5.2771   22.7474 H   0  0  0  0  0  0  0  0  0  0  0  0
   14.0882   -3.6745   23.0714 H   0  0  0  0  0  0  0  0  0  0  0  0
   13.6704   -4.5246   21.5739 H   0  0  0  0  0  0  0  0  0  0  0  0
   16.4412   -3.5022   22.3763 H   0  0  0  0  0  0  0  0  0  0  0  0
   16.1118   -4.4395   20.9229 H   0  0  0  0  0  0  0  0  0  0  0  0
   14.4235   -2.0366   21.4085 H   0  0  0  0  0  0  0  0  0  0  0  0
   16.9895   -1.3269   21.8979 H   0  0  0  0  0  0  0  0  0  0  0  0
   15.7194   -0.2448   21.2977 H   0  0  0  0  0  0  0  0  0  0  0  0
   17.9973   -1.1163   19.7757 H   0  0  0  0  0  0  0  0  0  0  0  0
   16.5697   -0.2264   19.1843 H   0  0  0  0  0  0  0  0  0  0  0  0
   16.4683   -2.3738   18.1109 H   0  0  0  0  0  0  0  0  0  0  0  0
   16.8586   -3.2960   19.4764 H   0  0  0  0  0  0  0  0  0  0  0  0
   12.2009   -4.5710   17.1218 H   0  0  0  0  0  0  0  0  0  0  0  0
   11.2885   -3.6798   14.9790 H   0  0  0  0  0  0  0  0  0  0  0  0
   12.1656   -2.0179   12.9134 H   0  0  0  0  0  0  0  0  0  0  0  0
   14.8887   -1.2020   17.3678 H   0  0  0  0  0  0  0  0  0  0  0  0
   15.4429    1.3084   14.3220 H   0  0  0  0  0  0  0  0  0  0  0  0
   15.6283    0.6395   15.9334 H   0  0  0  0  0  0  0  0  0  0  0  0
   16.9595   -1.2990   14.9363 H   0  0  0  0  0  0  0  0  0  0  0  0
   17.7066    0.2900   14.8333 H   0  0  0  0  0  0  0  0  0  0  0  0
   18.0624   -0.8456   12.7660 H   0  0  0  0  0  0  0  0  0  0  0  0
   17.0075    0.5245   12.4683 H   0  0  0  0  0  0  0  0  0  0  0  0
   16.4452   -1.5814   11.2248 H   0  0  0  0  0  0  0  0  0  0  0  0
   16.0683   -2.3890   12.7413 H   0  0  0  0  0  0  0  0  0  0  0  0
   14.6501    0.1665   11.7411 H   0  0  0  0  0  0  0  0  0  0  0  0
   14.1109   -1.4687   11.3754 H   0  0  0  0  0  0  0  0  0  0  0  0
  1  2  1  0
  2  3  1  0
  3  4  1  0
  4  5  1  0
  5  6  1  0
  6  7  1  0
  7  8  1  0
  8  9  2  0
  8 10  1  0
 10 11  2  0
 11 12  1  0
 12 13  2  0
 13 14  1  0
 14 15  1  0
 15 16  2  0
 16 17  1  0
 17 18  2  0
 16 19  1  0
 19 20  1  0
 20 21  1  0
 21 22  1  0
 22 23  1  0
  7  3  1  0
 18 10  1  0
 17 13  1  0
 23 15  1  0
  1 24  1  0
  1 25  1  0
  1 26  1  0
  2 27  1  0
  2 28  1  0
  3 29  1  0
  4 30  1  0
  4 31  1  0
  5 32  1  0
  5 33  1  0
  6 34  1  0
  6 35  1  0
 11 36  1  0
 12 37  1  0
 14 38  1  0
 18 39  1  0
 19 40  1  0
 19 41  1  0
 20 42  1  0
 20 43  1  0
 21 44  1  0
 21 45  1  0
 22 46  1  0
 22 47  1  0
 23 48  1  0
 23 49  1  0
M  END
>  <Energy>  (142) 
122.19920556666932

>  <compound_id>  (142) 
51687

>  <target_id>  (142) 
1

>  <reference_id>  (142) 
97

>  <inspiration_ids>  (142) 
[124, 97]

>  <energy_score>  (142) 
41.75577515703213

>  <distance_score>  (142) 
1.8780204739352964

>  <path>  (142) 
/opt/xchem-fragalysis-2/maxwin/BulkDock/SCRATCH/511024/C51687-P97/C51687-P97.minimised.mol

>  <scratch_subdir>  (142) 
/opt/xchem-fragalysis-2/maxwin/BulkDock/SCRATCH/511024/C51687-P97

>  <fragmenstein_runtime>  (142) 
7.271002292633057

>  <fragmenstein_outcome>  (142) 
too moved

>  <fragmenstein_mode>  (142) 
expansion

>  <fragmenstein_error>  (142) 


$$$$
C51705-P124
     RDKit          3D

 51 54  0  0  0  0  0  0  0  0999 V2000
   13.5535   -4.4108   19.2228 O   0  0  0  0  0  0  0  0  0  0  0  0
   14.3564   -3.9777   18.5008 C   0  0  0  0  0  0  0  0  0  0  0  0
   15.8761   -3.8184   18.6799 N   0  0  0  0  0  0  0  0  0  0  0  0
   16.7128   -4.0705   19.8199 C   0  0  0  0  0  0  0  0  0  0  0  0
   18.0964   -3.4436   19.6804 C   0  0  0  0  0  0  0  0  0  0  0  0
   18.1734   -1.9714   19.2239 C   0  0  0  0  0  0  0  0  0  0  0  0
   17.5745   -0.9990   20.1553 N   0  0  0  0  0  0  0  0  0  0  0  0
   16.2040   -0.5978   19.7707 C   0  0  0  0  0  0  0  0  0  0  0  0
   16.3525    0.4807   18.7059 C   0  0  0  0  0  0  0  0  0  0  0  0
   17.7511    1.0432   18.9210 C   0  0  0  0  0  0  0  0  0  0  0  0
   18.2949    0.2886   20.1258 C   0  0  0  0  0  0  0  0  0  0  0  0
   13.8834   -3.3710   17.2081 C   0  0  0  0  0  0  0  0  0  0  0  0
   12.6512   -3.7327   16.6487 C   0  0  0  0  0  0  0  0  0  0  0  0
   12.1267   -3.0894   15.5137 C   0  0  0  0  0  0  0  0  0  0  0  0
   12.9299   -2.1163   14.9145 C   0  0  0  0  0  0  0  0  0  0  0  0
   12.7704   -1.4002   13.7468 N   0  0  0  0  0  0  0  0  0  0  0  0
   13.9399   -0.7390   13.4695 C   0  0  0  0  0  0  0  0  0  0  0  0
   14.7356   -0.7841   14.5898 C   0  0  0  0  0  0  0  0  0  0  0  0
   14.1531   -1.7292   15.4538 C   0  0  0  0  0  0  0  0  0  0  0  0
   14.6033   -2.3243   16.6338 C   0  0  0  0  0  0  0  0  0  0  0  0
   16.0562   -0.1068   14.6800 C   0  0  0  0  0  0  0  0  0  0  0  0
   16.6727    0.0188   13.2850 C   0  0  0  0  0  0  0  0  0  0  0  0
   15.6674    0.6164   12.2882 C   0  0  0  0  0  0  0  0  0  0  0  0
   14.3621   -0.1956   12.1539 C   0  0  0  0  0  0  0  0  0  0  0  0
   16.2823   -3.4803   17.8220 H   0  0  0  0  0  0  0  0  0  0  0  0
   16.7900   -5.1556   19.9427 H   0  0  0  0  0  0  0  0  0  0  0  0
   16.1925   -3.6817   20.7014 H   0  0  0  0  0  0  0  0  0  0  0  0
   18.6288   -3.5552   20.6334 H   0  0  0  0  0  0  0  0  0  0  0  0
   18.6616   -4.0350   18.9473 H   0  0  0  0  0  0  0  0  0  0  0  0
   19.2491   -1.7662   19.1335 H   0  0  0  0  0  0  0  0  0  0  0  0
   17.7802   -1.8632   18.2060 H   0  0  0  0  0  0  0  0  0  0  0  0
   15.5648   -1.4192   19.4505 H   0  0  0  0  0  0  0  0  0  0  0  0
   15.7162   -0.1666   20.6549 H   0  0  0  0  0  0  0  0  0  0  0  0
   16.2742    0.0696   17.6973 H   0  0  0  0  0  0  0  0  0  0  0  0
   15.5848    1.2537   18.8139 H   0  0  0  0  0  0  0  0  0  0  0  0
   18.3677    0.8544   18.0345 H   0  0  0  0  0  0  0  0  0  0  0  0
   17.7329    2.1235   19.0954 H   0  0  0  0  0  0  0  0  0  0  0  0
   19.3853    0.1868   20.1037 H   0  0  0  0  0  0  0  0  0  0  0  0
   18.0549    0.8413   21.0434 H   0  0  0  0  0  0  0  0  0  0  0  0
   12.0726   -4.5276   17.1091 H   0  0  0  0  0  0  0  0  0  0  0  0
   11.1763   -3.3912   15.0856 H   0  0  0  0  0  0  0  0  0  0  0  0
   11.9733   -1.4988   13.1342 H   0  0  0  0  0  0  0  0  0  0  0  0
   15.5184   -1.9411   17.0573 H   0  0  0  0  0  0  0  0  0  0  0  0
   15.9190    0.8883   15.1197 H   0  0  0  0  0  0  0  0  0  0  0  0
   16.7440   -0.6609   15.3276 H   0  0  0  0  0  0  0  0  0  0  0  0
   16.9897   -0.9688   12.9258 H   0  0  0  0  0  0  0  0  0  0  0  0
   17.5686    0.6479   13.3330 H   0  0  0  0  0  0  0  0  0  0  0  0
   15.4160    1.6332   12.6187 H   0  0  0  0  0  0  0  0  0  0  0  0
   16.1337    0.7173   11.3013 H   0  0  0  0  0  0  0  0  0  0  0  0
   13.5804    0.4394   11.7241 H   0  0  0  0  0  0  0  0  0  0  0  0
   14.5295   -1.0311   11.4635 H   0  0  0  0  0  0  0  0  0  0  0  0
  1  2  2  0
  2  3  1  0
  3  4  1  0
  4  5  1  0
  5  6  1  0
  6  7  1  0
  7  8  1  0
  8  9  1  0
  9 10  1  0
 10 11  1  0
  2 12  1  0
 12 13  2  0
 13 14  1  0
 14 15  2  0
 15 16  1  0
 16 17  1  0
 17 18  2  0
 18 19  1  0
 19 20  2  0
 18 21  1  0
 21 22  1  0
 22 23  1  0
 23 24  1  0
 11  7  1  0
 20 12  1  0
 19 15  1  0
 24 17  1  0
  3 25  1  0
  4 26  1  0
  4 27  1  0
  5 28  1  0
  5 29  1  0
  6 30  1  0
  6 31  1  0
  8 32  1  0
  8 33  1  0
  9 34  1  0
  9 35  1  0
 10 36  1  0
 10 37  1  0
 11 38  1  0
 11 39  1  0
 13 40  1  0
 14 41  1  0
 16 42  1  0
 20 43  1  0
 21 44  1  0
 21 45  1  0
 22 46  1  0
 22 47  1  0
 23 48  1  0
 23 49  1  0
 24 50  1  0
 24 51  1  0
M  END
>  <Energy>  (143) 
48.062410133866564

>  <compound_id>  (143) 
51705

>  <target_id>  (143) 
1

>  <reference_id>  (143) 
124

>  <inspiration_ids>  (143) 
[124, 97]

>  <energy_score>  (143) 
-36.05009441983992

>  <distance_score>  (143) 
2.034075025276296

>  <path>  (143) 
/opt/xchem-fragalysis-2/maxwin/BulkDock/SCRATCH/511024/C51705-P124/C51705-P124.minimised.mol

>  <scratch_subdir>  (143) 
/opt/xchem-fragalysis-2/maxwin/BulkDock/SCRATCH/511024/C51705-P124

>  <fragmenstein_runtime>  (143) 
24.427478790283203

>  <fragmenstein_outcome>  (143) 
too moved

>  <fragmenstein_mode>  (143) 
expansion

>  <fragmenstein_error>  (143) 


$$$$
C51705-P97
     RDKit          3D

 51 54  0  0  0  0  0  0  0  0999 V2000
   13.4947   -4.7051   19.1104 O   0  0  0  0  0  0  0  0  0  0  0  0
   14.2387   -4.1762   18.3899 C   0  0  0  0  0  0  0  0  0  0  0  0
   15.7658   -4.0081   18.4805 N   0  0  0  0  0  0  0  0  0  0  0  0
   16.6845   -4.3728   19.5230 C   0  0  0  0  0  0  0  0  0  0  0  0
   18.0842   -3.8118   19.2931 C   0  0  0  0  0  0  0  0  0  0  0  0
   18.2056   -2.3123   18.9494 C   0  0  0  0  0  0  0  0  0  0  0  0
   17.7734   -1.3955   20.0194 N   0  0  0  0  0  0  0  0  0  0  0  0
   16.3991   -0.8851   19.8225 C   0  0  0  0  0  0  0  0  0  0  0  0
   16.5056    0.2862   18.8547 C   0  0  0  0  0  0  0  0  0  0  0  0
   17.9588    0.7316   18.9447 C   0  0  0  0  0  0  0  0  0  0  0  0
   18.5709   -0.1541   20.0198 C   0  0  0  0  0  0  0  0  0  0  0  0
   13.6893   -3.4287   17.2054 C   0  0  0  0  0  0  0  0  0  0  0  0
   12.4945   -3.8128   16.5931 C   0  0  0  0  0  0  0  0  0  0  0  0
   11.9690   -3.1156   15.4903 C   0  0  0  0  0  0  0  0  0  0  0  0
   12.7512   -2.0848   14.9640 C   0  0  0  0  0  0  0  0  0  0  0  0
   12.6254   -1.3602   13.7960 N   0  0  0  0  0  0  0  0  0  0  0  0
   13.8011   -0.6867   13.5709 C   0  0  0  0  0  0  0  0  0  0  0  0
   14.5385   -0.7073   14.7332 C   0  0  0  0  0  0  0  0  0  0  0  0
   13.9256   -1.6590   15.5752 C   0  0  0  0  0  0  0  0  0  0  0  0
   14.3458   -2.2816   16.7523 C   0  0  0  0  0  0  0  0  0  0  0  0
   15.8675   -0.0486   14.8619 C   0  0  0  0  0  0  0  0  0  0  0  0
   16.5567    0.0078   13.4951 C   0  0  0  0  0  0  0  0  0  0  0  0
   15.6188    0.5902   12.4270 C   0  0  0  0  0  0  0  0  0  0  0  0
   14.2993   -0.1917   12.2596 C   0  0  0  0  0  0  0  0  0  0  0  0
   16.1063   -3.5652   17.6407 H   0  0  0  0  0  0  0  0  0  0  0  0
   16.7089   -5.4660   19.5776 H   0  0  0  0  0  0  0  0  0  0  0  0
   16.2666   -4.0125   20.4687 H   0  0  0  0  0  0  0  0  0  0  0  0
   18.6982   -4.0307   20.1759 H   0  0  0  0  0  0  0  0  0  0  0  0
   18.5386   -4.3686   18.4625 H   0  0  0  0  0  0  0  0  0  0  0  0
   19.2762   -2.1587   18.7555 H   0  0  0  0  0  0  0  0  0  0  0  0
   17.7123   -2.0929   17.9948 H   0  0  0  0  0  0  0  0  0  0  0  0
   15.6811   -1.6385   19.5002 H   0  0  0  0  0  0  0  0  0  0  0  0
   16.0330   -0.5189   20.7908 H   0  0  0  0  0  0  0  0  0  0  0  0
   16.2741   -0.0101   17.8302 H   0  0  0  0  0  0  0  0  0  0  0  0
   15.8198    1.0927   19.1336 H   0  0  0  0  0  0  0  0  0  0  0  0
   18.4566    0.5713   17.9812 H   0  0  0  0  0  0  0  0  0  0  0  0
   18.0451    1.7933   19.1963 H   0  0  0  0  0  0  0  0  0  0  0  0
   19.6442   -0.3163   19.8734 H   0  0  0  0  0  0  0  0  0  0  0  0
   18.4617    0.3287   20.9997 H   0  0  0  0  0  0  0  0  0  0  0  0
   11.9596   -4.6807   16.9685 H   0  0  0  0  0  0  0  0  0  0  0  0
   11.0567   -3.4450   15.0032 H   0  0  0  0  0  0  0  0  0  0  0  0
   11.8722   -1.4996   13.1356 H   0  0  0  0  0  0  0  0  0  0  0  0
   15.2298   -1.8965   17.2359 H   0  0  0  0  0  0  0  0  0  0  0  0
   15.7298    0.9650   15.2563 H   0  0  0  0  0  0  0  0  0  0  0  0
   16.5128   -0.5913   15.5602 H   0  0  0  0  0  0  0  0  0  0  0  0
   16.8654   -1.0004   13.1903 H   0  0  0  0  0  0  0  0  0  0  0  0
   17.4650    0.6166   13.5654 H   0  0  0  0  0  0  0  0  0  0  0  0
   15.3799    1.6254   12.7053 H   0  0  0  0  0  0  0  0  0  0  0  0
   16.1352    0.6401   11.4615 H   0  0  0  0  0  0  0  0  0  0  0  0
   13.5546    0.4504   11.7777 H   0  0  0  0  0  0  0  0  0  0  0  0
   14.4738   -1.0514   11.6012 H   0  0  0  0  0  0  0  0  0  0  0  0
  1  2  2  0
  2  3  1  0
  3  4  1  0
  4  5  1  0
  5  6  1  0
  6  7  1  0
  7  8  1  0
  8  9  1  0
  9 10  1  0
 10 11  1  0
  2 12  1  0
 12 13  2  0
 13 14  1  0
 14 15  2  0
 15 16  1  0
 16 17  1  0
 17 18  2  0
 18 19  1  0
 19 20  2  0
 18 21  1  0
 21 22  1  0
 22 23  1  0
 23 24  1  0
 11  7  1  0
 20 12  1  0
 19 15  1  0
 24 17  1  0
  3 25  1  0
  4 26  1  0
  4 27  1  0
  5 28  1  0
  5 29  1  0
  6 30  1  0
  6 31  1  0
  8 32  1  0
  8 33  1  0
  9 34  1  0
  9 35  1  0
 10 36  1  0
 10 37  1  0
 11 38  1  0
 11 39  1  0
 13 40  1  0
 14 41  1  0
 16 42  1  0
 20 43  1  0
 21 44  1  0
 21 45  1  0
 22 46  1  0
 22 47  1  0
 23 48  1  0
 23 49  1  0
 24 50  1  0
 24 51  1  0
M  END
>  <Energy>  (144) 
49.726307483313612

>  <compound_id>  (144) 
51705

>  <target_id>  (144) 
1

>  <reference_id>  (144) 
97

>  <inspiration_ids>  (144) 
[124, 97]

>  <energy_score>  (144) 
-34.386197070391916

>  <distance_score>  (144) 
2.0403735609126157

>  <path>  (144) 
/opt/xchem-fragalysis-2/maxwin/BulkDock/SCRATCH/511024/C51705-P97/C51705-P97.minimised.mol

>  <scratch_subdir>  (144) 
/opt/xchem-fragalysis-2/maxwin/BulkDock/SCRATCH/511024/C51705-P97

>  <fragmenstein_runtime>  (144) 
23.339153289794922

>  <fragmenstein_outcome>  (144) 
too moved

>  <fragmenstein_mode>  (144) 
expansion

>  <fragmenstein_error>  (144) 


$$$$
C51706-P124
     RDKit          3D

 54 58  0  0  0  0  0  0  0  0999 V2000
   14.4284   -4.5717   19.0975 O   0  0  0  0  0  0  0  0  0  0  0  0
   14.3995   -3.5150   18.6096 C   0  0  0  0  0  0  0  0  0  0  0  0
   14.8211   -2.1401   19.1737 N   0  0  0  0  0  0  0  0  0  0  0  0
   15.4499   -1.7967   20.4127 C   0  0  0  0  0  0  0  0  0  0  0  0
   15.6381   -0.3021   20.3974 C   0  0  0  0  0  0  0  0  0  0  0  0
   16.5844    0.3275   19.5887 C   0  0  0  0  0  0  0  0  0  0  0  0
   16.6427    1.7213   19.5457 C   0  0  0  0  0  0  0  0  0  0  0  0
   15.7568    2.4852   20.3036 C   0  0  0  0  0  0  0  0  0  0  0  0
   15.7735    3.8624   20.2593 N   0  0  0  0  0  0  0  0  0  0  0  0
   16.9891    4.6243   19.9916 C   0  0  0  0  0  0  0  0  0  0  0  0
   16.8052    5.9242   20.7773 C   0  0  0  0  0  0  0  0  0  0  0  0
   15.2969    6.0489   20.9209 C   0  0  0  0  0  0  0  0  0  0  0  0
   14.8661    4.6010   21.1306 C   0  0  0  0  0  0  0  0  0  0  0  0
   14.8223    1.8779   21.0679 N   0  0  0  0  0  0  0  0  0  0  0  0
   14.7849    0.5243   21.1063 C   0  0  0  0  0  0  0  0  0  0  0  0
   13.9683   -3.2873   17.1998 C   0  0  0  0  0  0  0  0  0  0  0  0
   12.7021   -3.6349   16.7344 C   0  0  0  0  0  0  0  0  0  0  0  0
   12.1841   -3.0570   15.5627 C   0  0  0  0  0  0  0  0  0  0  0  0
   13.0054   -2.1452   14.8849 C   0  0  0  0  0  0  0  0  0  0  0  0
   12.8051   -1.4200   13.7268 N   0  0  0  0  0  0  0  0  0  0  0  0
   13.9744   -0.7872   13.3849 C   0  0  0  0  0  0  0  0  0  0  0  0
   14.8629   -0.9284   14.4222 C   0  0  0  0  0  0  0  0  0  0  0  0
   14.3015   -1.8577   15.3097 C   0  0  0  0  0  0  0  0  0  0  0  0
   14.8129   -2.4822   16.4406 C   0  0  0  0  0  0  0  0  0  0  0  0
   16.2051   -0.2908   14.4542 C   0  0  0  0  0  0  0  0  0  0  0  0
   16.6978   -0.0315   13.0310 C   0  0  0  0  0  0  0  0  0  0  0  0
   15.6135    0.6544   12.1865 C   0  0  0  0  0  0  0  0  0  0  0  0
   14.3036   -0.1550   12.0841 C   0  0  0  0  0  0  0  0  0  0  0  0
   14.7389   -1.4377   18.4494 H   0  0  0  0  0  0  0  0  0  0  0  0
   14.8209   -2.1409   21.2388 H   0  0  0  0  0  0  0  0  0  0  0  0
   16.4103   -2.3174   20.4782 H   0  0  0  0  0  0  0  0  0  0  0  0
   17.2708   -0.2584   18.9828 H   0  0  0  0  0  0  0  0  0  0  0  0
   17.3704    2.1975   18.8983 H   0  0  0  0  0  0  0  0  0  0  0  0
   17.0652    4.8295   18.9182 H   0  0  0  0  0  0  0  0  0  0  0  0
   17.9021    4.1169   20.3233 H   0  0  0  0  0  0  0  0  0  0  0  0
   17.2580    6.7836   20.2751 H   0  0  0  0  0  0  0  0  0  0  0  0
   17.2660    5.8282   21.7681 H   0  0  0  0  0  0  0  0  0  0  0  0
   15.0003    6.6997   21.7479 H   0  0  0  0  0  0  0  0  0  0  0  0
   14.8632    6.4443   19.9945 H   0  0  0  0  0  0  0  0  0  0  0  0
   13.8161    4.4584   20.8542 H   0  0  0  0  0  0  0  0  0  0  0  0
   15.0086    4.3182   22.1812 H   0  0  0  0  0  0  0  0  0  0  0  0
   14.0048    0.1141   21.7444 H   0  0  0  0  0  0  0  0  0  0  0  0
   12.0957   -4.3260   17.3071 H   0  0  0  0  0  0  0  0  0  0  0  0
   11.1932   -3.3099   15.1992 H   0  0  0  0  0  0  0  0  0  0  0  0
   11.9541   -1.4501   13.1820 H   0  0  0  0  0  0  0  0  0  0  0  0
   15.8277   -2.2684   16.7643 H   0  0  0  0  0  0  0  0  0  0  0  0
   16.9316   -0.9206   14.9791 H   0  0  0  0  0  0  0  0  0  0  0  0
   16.1362    0.6563   15.0029 H   0  0  0  0  0  0  0  0  0  0  0  0
   17.5990    0.5911   13.0594 H   0  0  0  0  0  0  0  0  0  0  0  0
   16.9756   -0.9801   12.5537 H   0  0  0  0  0  0  0  0  0  0  0  0
   15.9950    0.8525   11.1782 H   0  0  0  0  0  0  0  0  0  0  0  0
   15.3910    1.6325   12.6338 H   0  0  0  0  0  0  0  0  0  0  0  0
   14.4267   -0.9407   11.3293 H   0  0  0  0  0  0  0  0  0  0  0  0
   13.4943    0.5039   11.7527 H   0  0  0  0  0  0  0  0  0  0  0  0
  1  2  2  0
  2  3  1  0
  3  4  1  0
  4  5  1  0
  5  6  2  0
  6  7  1  0
  7  8  2  0
  8  9  1  0
  9 10  1  0
 10 11  1  0
 11 12  1  0
 12 13  1  0
  8 14  1  0
 14 15  2  0
  2 16  1  0
 16 17  2  0
 17 18  1  0
 18 19  2  0
 19 20  1  0
 20 21  1  0
 21 22  2  0
 22 23  1  0
 23 24  2  0
 22 25  1  0
 25 26  1  0
 26 27  1  0
 27 28  1  0
 15  5  1  0
 24 16  1  0
 13  9  1  0
 23 19  1  0
 28 21  1  0
  3 29  1  0
  4 30  1  0
  4 31  1  0
  6 32  1  0
  7 33  1  0
 10 34  1  0
 10 35  1  0
 11 36  1  0
 11 37  1  0
 12 38  1  0
 12 39  1  0
 13 40  1  0
 13 41  1  0
 15 42  1  0
 17 43  1  0
 18 44  1  0
 20 45  1  0
 24 46  1  0
 25 47  1  0
 25 48  1  0
 26 49  1  0
 26 50  1  0
 27 51  1  0
 27 52  1  0
 28 53  1  0
 28 54  1  0
M  END
>  <Energy>  (145) 
20.494789203565936

>  <compound_id>  (145) 
51706

>  <target_id>  (145) 
1

>  <reference_id>  (145) 
124

>  <inspiration_ids>  (145) 
[124, 97]

>  <energy_score>  (145) 
-7.175362568235769

>  <distance_score>  (145) 
2.1318743738110997

>  <path>  (145) 
/opt/xchem-fragalysis-2/maxwin/BulkDock/SCRATCH/511024/C51706-P124/C51706-P124.minimised.mol

>  <scratch_subdir>  (145) 
/opt/xchem-fragalysis-2/maxwin/BulkDock/SCRATCH/511024/C51706-P124

>  <fragmenstein_runtime>  (145) 
58.59998178482056

>  <fragmenstein_outcome>  (145) 
too moved

>  <fragmenstein_mode>  (145) 
expansion

>  <fragmenstein_error>  (145) 


$$$$
C51706-P97
     RDKit          3D

 54 58  0  0  0  0  0  0  0  0999 V2000
   14.4383   -4.6329   19.0444 O   0  0  0  0  0  0  0  0  0  0  0  0
   14.3775   -3.5555   18.6080 C   0  0  0  0  0  0  0  0  0  0  0  0
   14.7828   -2.2006   19.2274 N   0  0  0  0  0  0  0  0  0  0  0  0
   15.4304   -1.9025   20.4669 C   0  0  0  0  0  0  0  0  0  0  0  0
   15.6271   -0.4072   20.4761 C   0  0  0  0  0  0  0  0  0  0  0  0
   16.6003    0.2277   19.7048 C   0  0  0  0  0  0  0  0  0  0  0  0
   16.6534    1.6220   19.6666 C   0  0  0  0  0  0  0  0  0  0  0  0
   15.7315    2.3806   20.3866 C   0  0  0  0  0  0  0  0  0  0  0  0
   15.7411    3.7584   20.3400 N   0  0  0  0  0  0  0  0  0  0  0  0
   16.9682    4.5241   20.1439 C   0  0  0  0  0  0  0  0  0  0  0  0
   16.7374    5.8210   20.9223 C   0  0  0  0  0  0  0  0  0  0  0  0
   15.2232    5.9408   20.9839 C   0  0  0  0  0  0  0  0  0  0  0  0
   14.7867    4.4910   21.1656 C   0  0  0  0  0  0  0  0  0  0  0  0
   14.7685    1.7683   21.1104 N   0  0  0  0  0  0  0  0  0  0  0  0
   14.7389    0.4149   21.1477 C   0  0  0  0  0  0  0  0  0  0  0  0
   13.9087   -3.2555   17.2245 C   0  0  0  0  0  0  0  0  0  0  0  0
   12.6686   -3.6487   16.7311 C   0  0  0  0  0  0  0  0  0  0  0  0
   12.1463   -3.0667   15.5612 C   0  0  0  0  0  0  0  0  0  0  0  0
   12.9446   -2.1208   14.9009 C   0  0  0  0  0  0  0  0  0  0  0  0
   12.7585   -1.4328   13.7167 N   0  0  0  0  0  0  0  0  0  0  0  0
   13.9203   -0.7717   13.3956 C   0  0  0  0  0  0  0  0  0  0  0  0
   14.7699   -0.8415   14.4729 C   0  0  0  0  0  0  0  0  0  0  0  0
   14.2108   -1.7705   15.3628 C   0  0  0  0  0  0  0  0  0  0  0  0
   14.7158   -2.3745   16.5065 C   0  0  0  0  0  0  0  0  0  0  0  0
   16.1015   -0.1812   14.5201 C   0  0  0  0  0  0  0  0  0  0  0  0
   16.6575   -0.0315   13.1042 C   0  0  0  0  0  0  0  0  0  0  0  0
   15.6126    0.5927   12.1674 C   0  0  0  0  0  0  0  0  0  0  0  0
   14.2975   -0.2102   12.0733 C   0  0  0  0  0  0  0  0  0  0  0  0
   14.5168   -1.4491   18.6016 H   0  0  0  0  0  0  0  0  0  0  0  0
   16.3847   -2.4362   20.5101 H   0  0  0  0  0  0  0  0  0  0  0  0
   14.8038   -2.2537   21.2919 H   0  0  0  0  0  0  0  0  0  0  0  0
   17.3089   -0.3551   19.1220 H   0  0  0  0  0  0  0  0  0  0  0  0
   17.4035    2.1030   19.0490 H   0  0  0  0  0  0  0  0  0  0  0  0
   17.1039    4.7333   19.0772 H   0  0  0  0  0  0  0  0  0  0  0  0
   17.8624    4.0175   20.5244 H   0  0  0  0  0  0  0  0  0  0  0  0
   17.2142    6.6834   20.4481 H   0  0  0  0  0  0  0  0  0  0  0  0
   17.1439    5.7233   21.9364 H   0  0  0  0  0  0  0  0  0  0  0  0
   14.8800    6.5882   21.7954 H   0  0  0  0  0  0  0  0  0  0  0  0
   14.8393    6.3378   20.0364 H   0  0  0  0  0  0  0  0  0  0  0  0
   13.7531    4.3455   20.8339 H   0  0  0  0  0  0  0  0  0  0  0  0
   14.8749    4.2053   22.2214 H   0  0  0  0  0  0  0  0  0  0  0  0
   13.9351    0.0000   21.7519 H   0  0  0  0  0  0  0  0  0  0  0  0
   12.0893   -4.3888   17.2721 H   0  0  0  0  0  0  0  0  0  0  0  0
   11.1800   -3.3662   15.1673 H   0  0  0  0  0  0  0  0  0  0  0  0
   11.9398   -1.5367   13.1314 H   0  0  0  0  0  0  0  0  0  0  0  0
   15.7151   -2.1228   16.8513 H   0  0  0  0  0  0  0  0  0  0  0  0
   16.8102   -0.7542   15.1276 H   0  0  0  0  0  0  0  0  0  0  0  0
   15.9942    0.8057   14.9861 H   0  0  0  0  0  0  0  0  0  0  0  0
   17.5593    0.5906   13.1249 H   0  0  0  0  0  0  0  0  0  0  0  0
   16.9506   -1.0135   12.7110 H   0  0  0  0  0  0  0  0  0  0  0  0
   16.0350    0.7126   11.1630 H   0  0  0  0  0  0  0  0  0  0  0  0
   15.3822    1.6034   12.5303 H   0  0  0  0  0  0  0  0  0  0  0  0
   13.5067    0.4402   11.6859 H   0  0  0  0  0  0  0  0  0  0  0  0
   14.4325   -1.0353   11.3637 H   0  0  0  0  0  0  0  0  0  0  0  0
  1  2  2  0
  2  3  1  0
  3  4  1  0
  4  5  1  0
  5  6  2  0
  6  7  1  0
  7  8  2  0
  8  9  1  0
  9 10  1  0
 10 11  1  0
 11 12  1  0
 12 13  1  0
  8 14  1  0
 14 15  2  0
  2 16  1  0
 16 17  2  0
 17 18  1  0
 18 19  2  0
 19 20  1  0
 20 21  1  0
 21 22  2  0
 22 23  1  0
 23 24  2  0
 22 25  1  0
 25 26  1  0
 26 27  1  0
 27 28  1  0
 15  5  1  0
 24 16  1  0
 13  9  1  0
 23 19  1  0
 28 21  1  0
  3 29  1  0
  4 30  1  0
  4 31  1  0
  6 32  1  0
  7 33  1  0
 10 34  1  0
 10 35  1  0
 11 36  1  0
 11 37  1  0
 12 38  1  0
 12 39  1  0
 13 40  1  0
 13 41  1  0
 15 42  1  0
 17 43  1  0
 18 44  1  0
 20 45  1  0
 24 46  1  0
 25 47  1  0
 25 48  1  0
 26 49  1  0
 26 50  1  0
 27 51  1  0
 27 52  1  0
 28 53  1  0
 28 54  1  0
M  END
>  <Energy>  (146) 
20.512642369069169

>  <compound_id>  (146) 
51706

>  <target_id>  (146) 
1

>  <reference_id>  (146) 
97

>  <inspiration_ids>  (146) 
[124, 97]

>  <energy_score>  (146) 
-7.157509402733126

>  <distance_score>  (146) 
2.214220605268005

>  <path>  (146) 
/opt/xchem-fragalysis-2/maxwin/BulkDock/SCRATCH/511024/C51706-P97/C51706-P97.minimised.mol

>  <scratch_subdir>  (146) 
/opt/xchem-fragalysis-2/maxwin/BulkDock/SCRATCH/511024/C51706-P97

>  <fragmenstein_runtime>  (146) 
51.33319878578186

>  <fragmenstein_outcome>  (146) 
too moved

>  <fragmenstein_mode>  (146) 
expansion

>  <fragmenstein_error>  (146) 


$$$$
C53924-P112
     RDKit          3D

 45 46  0  0  0  0  0  0  0  0999 V2000
  -12.3386  -23.2447    7.9857 C   0  0  0  0  0  0  0  0  0  0  0  0
  -12.4017  -21.9317    7.3307 N   0  0  0  0  0  0  0  0  0  0  0  0
  -13.0093  -22.1698    5.9959 C   0  0  0  0  0  0  0  0  0  0  0  0
  -11.0614  -21.2829    7.1197 C   0  0  0  0  0  0  0  0  0  0  0  0
  -10.4533  -20.2109    8.1436 C   0  0  0  0  0  0  0  0  0  0  0  0
   -9.5127  -19.3467    7.4200 O   0  0  0  0  0  0  0  0  0  0  0  0
   -9.1199  -18.0184    7.9255 C   0  0  0  0  0  0  0  0  0  0  0  0
   -9.1147  -17.9244    9.4370 C   0  0  0  0  0  0  0  0  0  0  0  0
   -7.9439  -18.6729   10.0409 C   0  0  0  0  0  0  0  0  0  0  0  0
   -7.2084  -19.4258    9.0898 O   0  0  0  0  0  0  0  0  0  0  0  0
   -6.7196  -18.7259    7.9384 C   0  0  0  0  0  0  0  0  0  0  0  0
   -7.6547  -17.6379    7.3898 C   0  0  0  0  0  0  0  0  0  0  0  0
   -7.0290  -16.2541    7.6177 N   0  0  0  0  0  0  0  0  0  0  0  0
   -5.7885  -15.6334    7.0455 C   0  0  0  0  0  0  0  0  0  0  0  0
   -5.0271  -16.0405    6.2090 O   0  0  0  0  0  0  0  0  0  0  0  0
   -5.4740  -14.2037    7.6791 C   0  0  0  0  0  0  0  0  0  0  0  0
   -3.9922  -13.6649    7.7226 C   0  0  0  0  0  0  0  0  0  0  0  0
   -2.7640  -14.3047    7.7137 C   0  0  0  0  0  0  0  0  0  0  0  0
   -1.7928  -13.3269    7.7467 N   0  0  0  0  0  0  0  0  0  0  0  0
   -2.4277  -12.1224    7.8251 C   0  0  0  0  0  0  0  0  0  0  0  0
   -3.7359  -12.2872    7.8727 N   0  0  0  0  0  0  0  0  0  0  0  0
  -12.0200  -23.1702    9.0188 H   0  0  0  0  0  0  0  0  0  0  0  0
  -13.3428  -23.6841    8.0385 H   0  0  0  0  0  0  0  0  0  0  0  0
  -11.7007  -23.9540    7.4465 H   0  0  0  0  0  0  0  0  0  0  0  0
  -14.0066  -22.6120    6.1025 H   0  0  0  0  0  0  0  0  0  0  0  0
  -12.3953  -22.8347    5.3771 H   0  0  0  0  0  0  0  0  0  0  0  0
  -13.1509  -21.2271    5.4555 H   0  0  0  0  0  0  0  0  0  0  0  0
  -10.3413  -22.0332    6.7877 H   0  0  0  0  0  0  0  0  0  0  0  0
  -11.1526  -20.6885    6.1971 H   0  0  0  0  0  0  0  0  0  0  0  0
  -11.2047  -19.6059    8.6291 H   0  0  0  0  0  0  0  0  0  0  0  0
   -9.9715  -20.6380    9.0042 H   0  0  0  0  0  0  0  0  0  0  0  0
   -9.8387  -17.3018    7.5140 H   0  0  0  0  0  0  0  0  0  0  0  0
   -9.0459  -16.8711    9.7351 H   0  0  0  0  0  0  0  0  0  0  0  0
  -10.0511  -18.2734    9.8654 H   0  0  0  0  0  0  0  0  0  0  0  0
   -7.2871  -17.9655   10.5465 H   0  0  0  0  0  0  0  0  0  0  0  0
   -8.2957  -19.3644   10.8129 H   0  0  0  0  0  0  0  0  0  0  0  0
   -6.5842  -19.4760    7.1501 H   0  0  0  0  0  0  0  0  0  0  0  0
   -5.7091  -18.3655    8.1280 H   0  0  0  0  0  0  0  0  0  0  0  0
   -7.6556  -17.7351    6.2966 H   0  0  0  0  0  0  0  0  0  0  0  0
   -7.4729  -15.5936    8.2476 H   0  0  0  0  0  0  0  0  0  0  0  0
   -5.8615  -14.1803    8.7015 H   0  0  0  0  0  0  0  0  0  0  0  0
   -6.0558  -13.4817    7.0923 H   0  0  0  0  0  0  0  0  0  0  0  0
   -2.5021  -15.3530    7.6397 H   0  0  0  0  0  0  0  0  0  0  0  0
   -0.7941  -13.4811    7.6981 H   0  0  0  0  0  0  0  0  0  0  0  0
   -1.8991  -11.1786    7.8535 H   0  0  0  0  0  0  0  0  0  0  0  0
  1  2  1  0
  2  3  1  0
  2  4  1  0
  4  5  1  0
  5  6  1  0
  6  7  1  0
  7  8  1  0
  8  9  1  0
  9 10  1  0
 10 11  1  0
 11 12  1  0
 12 13  1  0
 13 14  1  0
 14 15  2  0
 14 16  1  0
 16 17  1  0
 17 18  2  0
 18 19  1  0
 19 20  1  0
 20 21  2  0
 12  7  1  0
 21 17  1  0
  1 22  1  0
  1 23  1  0
  1 24  1  0
  3 25  1  0
  3 26  1  0
  3 27  1  0
  4 28  1  0
  4 29  1  0
  5 30  1  0
  5 31  1  0
  7 32  1  0
  8 33  1  0
  8 34  1  0
  9 35  1  0
  9 36  1  0
 11 37  1  0
 11 38  1  0
 12 39  1  0
 13 40  1  0
 16 41  1  0
 16 42  1  0
 18 43  1  0
 19 44  1  0
 20 45  1  0
M  END
>  <Energy>  (147) 
125.29741501818091

>  <compound_id>  (147) 
53924

>  <target_id>  (147) 
1

>  <reference_id>  (147) 
112

>  <inspiration_ids>  (147) 
[112, 63]

>  <energy_score>  (147) 
3.9747804137309686

>  <distance_score>  (147) 
14.939029887259341

>  <path>  (147) 
/opt/xchem-fragalysis-2/maxwin/BulkDock/SCRATCH/511024/C53924-P112/C53924-P112.minimised.mol

>  <scratch_subdir>  (147) 
/opt/xchem-fragalysis-2/maxwin/BulkDock/SCRATCH/511024/C53924-P112

>  <fragmenstein_runtime>  (147) 
17.193955183029175

>  <fragmenstein_outcome>  (147) 
too moved

>  <fragmenstein_mode>  (147) 
expansion

>  <fragmenstein_error>  (147) 


$$$$
C53924-P63
     RDKit          3D

 45 46  0  0  0  0  0  0  0  0999 V2000
   -9.4323  -22.1385   12.5394 C   0  0  0  0  0  0  0  0  0  0  0  0
   -8.0666  -22.4057   12.1238 N   0  0  0  0  0  0  0  0  0  0  0  0
   -7.9253  -23.7858   11.7052 C   0  0  0  0  0  0  0  0  0  0  0  0
   -6.8907  -21.3924   12.7841 C   0  0  0  0  0  0  0  0  0  0  0  0
   -4.8964  -20.8641   12.7472 C   0  0  0  0  0  0  0  0  0  0  0  0
   -4.1225  -19.3421   13.0074 O   0  0  0  0  0  0  0  0  0  0  0  0
   -4.0736  -17.8413   14.3447 C   0  0  0  0  0  0  0  0  0  0  0  0
   -5.8659  -18.1969   13.5099 C   0  0  0  0  0  0  0  0  0  0  0  0
   -6.7768  -17.1766   13.2634 C   0  0  0  0  0  0  0  0  0  0  0  0
   -5.8228  -16.2390   13.4554 O   0  0  0  0  0  0  0  0  0  0  0  0
   -4.8487  -16.3756   14.5502 C   0  0  0  0  0  0  0  0  0  0  0  0
   -3.2497  -16.3171   14.9266 C   0  0  0  0  0  0  0  0  0  0  0  0
   -1.9949  -14.7946   14.9379 N   0  0  0  0  0  0  0  0  0  0  0  0
   -0.6740  -14.1799   13.5948 C   0  0  0  0  0  0  0  0  0  0  0  0
   -0.4090  -14.8097   12.5350 O   0  0  0  0  0  0  0  0  0  0  0  0
    0.1918  -12.6131   13.5639 C   0  0  0  0  0  0  0  0  0  0  0  0
    1.6866  -12.1138   13.6341 C   0  0  0  0  0  0  0  0  0  0  0  0
    2.5598  -11.8576   12.5815 C   0  0  0  0  0  0  0  0  0  0  0  0
    3.5961  -11.1126   13.0884 N   0  0  0  0  0  0  0  0  0  0  0  0
    3.3362  -10.8974   14.4085 C   0  0  0  0  0  0  0  0  0  0  0  0
    2.2015  -11.4613   14.7657 N   0  0  0  0  0  0  0  0  0  0  0  0
   -9.5510  -22.2562   13.6198 H   0  0  0  0  0  0  0  0  0  0  0  0
   -9.7262  -21.1421   12.2124 H   0  0  0  0  0  0  0  0  0  0  0  0
  -10.1517  -22.8135   12.0590 H   0  0  0  0  0  0  0  0  0  0  0  0
   -6.8844  -24.1026   11.5871 H   0  0  0  0  0  0  0  0  0  0  0  0
   -8.4748  -23.9463   10.7703 H   0  0  0  0  0  0  0  0  0  0  0  0
   -8.4558  -24.5000   12.3491 H   0  0  0  0  0  0  0  0  0  0  0  0
   -7.2754  -21.6342   13.7466 H   0  0  0  0  0  0  0  0  0  0  0  0
   -7.3526  -20.4960   12.2893 H   0  0  0  0  0  0  0  0  0  0  0  0
   -4.4020  -21.0623   11.7729 H   0  0  0  0  0  0  0  0  0  0  0  0
   -4.1657  -21.4788   13.2279 H   0  0  0  0  0  0  0  0  0  0  0  0
   -3.0439  -17.8372   13.9440 H   0  0  0  0  0  0  0  0  0  0  0  0
   -5.9179  -18.8149   12.6195 H   0  0  0  0  0  0  0  0  0  0  0  0
   -6.4829  -18.7489   14.0821 H   0  0  0  0  0  0  0  0  0  0  0  0
   -7.6388  -16.9547   13.8887 H   0  0  0  0  0  0  0  0  0  0  0  0
   -7.1728  -17.3938   12.2557 H   0  0  0  0  0  0  0  0  0  0  0  0
   -5.3953  -16.1896   15.4836 H   0  0  0  0  0  0  0  0  0  0  0  0
   -4.3713  -15.8346   13.8319 H   0  0  0  0  0  0  0  0  0  0  0  0
   -3.5320  -16.1638   15.9860 H   0  0  0  0  0  0  0  0  0  0  0  0
   -1.9709  -14.1756   15.7502 H   0  0  0  0  0  0  0  0  0  0  0  0
    0.1690  -12.5996   12.4484 H   0  0  0  0  0  0  0  0  0  0  0  0
   -0.4398  -11.7283   13.6334 H   0  0  0  0  0  0  0  0  0  0  0  0
    2.5004  -12.1023   11.5297 H   0  0  0  0  0  0  0  0  0  0  0  0
    4.3930  -10.7670   12.5712 H   0  0  0  0  0  0  0  0  0  0  0  0
    3.9943  -10.3269   15.0494 H   0  0  0  0  0  0  0  0  0  0  0  0
  1  2  1  0
  2  3  1  0
  2  4  1  0
  4  5  1  0
  5  6  1  0
  6  7  1  0
  7  8  1  0
  8  9  1  0
  9 10  1  0
 10 11  1  0
 11 12  1  0
 12 13  1  0
 13 14  1  0
 14 15  2  0
 14 16  1  0
 16 17  1  0
 17 18  2  0
 18 19  1  0
 19 20  1  0
 20 21  2  0
 12  7  1  0
 21 17  1  0
  1 22  1  0
  1 23  1  0
  1 24  1  0
  3 25  1  0
  3 26  1  0
  3 27  1  0
  4 28  1  0
  4 29  1  0
  5 30  1  0
  5 31  1  0
  7 32  1  0
  8 33  1  0
  8 34  1  0
  9 35  1  0
  9 36  1  0
 11 37  1  0
 11 38  1  0
 12 39  1  0
 13 40  1  0
 16 41  1  0
 16 42  1  0
 18 43  1  0
 19 44  1  0
 20 45  1  0
M  END
>  <Energy>  (148) 
1097.2810271986687

>  <compound_id>  (148) 
53924

>  <target_id>  (148) 
1

>  <reference_id>  (148) 
63

>  <inspiration_ids>  (148) 
[112, 63]

>  <energy_score>  (148) 
975.9583925942152

>  <distance_score>  (148) 
11.912475913478977

>  <path>  (148) 
/opt/xchem-fragalysis-2/maxwin/BulkDock/SCRATCH/511024/C53924-P63/C53924-P63.minimised.mol

>  <scratch_subdir>  (148) 
/opt/xchem-fragalysis-2/maxwin/BulkDock/SCRATCH/511024/C53924-P63

>  <fragmenstein_runtime>  (148) 
12.585246086120605

>  <fragmenstein_outcome>  (148) 
too moved

>  <fragmenstein_mode>  (148) 
expansion

>  <fragmenstein_error>  (148) 


$$$$
C53932-P112
     RDKit          3D

 48 50  0  0  0  0  0  0  0  0999 V2000
   -4.2215  -19.6737   12.8989 O   0  0  0  0  0  0  0  0  0  0  0  0
   -5.0371  -18.9202   13.0566 C   0  0  0  0  0  0  0  0  0  0  0  0
   -6.4193  -19.0075   12.3720 N   0  0  0  0  0  0  0  0  0  0  0  0
   -7.0548  -20.1162   11.4726 C   0  0  0  0  0  0  0  0  0  0  0  0
   -7.9664  -21.4648   12.4204 C   0  0  0  0  0  0  0  0  0  0  0  0
   -9.2141  -22.7729   12.4003 C   0  0  0  0  0  0  0  0  0  0  0  0
   -8.9075  -24.3450   12.2586 C   0  0  0  0  0  0  0  0  0  0  0  0
  -10.1391  -25.1563   11.8517 C   0  0  0  0  0  0  0  0  0  0  0  0
  -11.1269  -25.0015   12.8642 O   0  0  0  0  0  0  0  0  0  0  0  0
  -11.4609  -23.6291   13.0291 C   0  0  0  0  0  0  0  0  0  0  0  0
  -10.2406  -22.7520   13.4788 C   0  0  0  0  0  0  0  0  0  0  0  0
   -5.1691  -17.4249   14.2365 N   0  0  0  0  0  0  0  0  0  0  0  0
   -3.6865  -16.8688   15.2902 C   0  0  0  0  0  0  0  0  0  0  0  0
   -3.2060  -16.6226   17.2856 C   0  0  0  0  0  0  0  0  0  0  0  0
   -2.2974  -14.9031   17.6486 C   0  0  0  0  0  0  0  0  0  0  0  0
   -0.4409  -14.8272   17.7254 C   0  0  0  0  0  0  0  0  0  0  0  0
    0.3537  -15.9393   18.1451 N   0  0  0  0  0  0  0  0  0  0  0  0
    1.7415  -15.8061   18.0117 C   0  0  0  0  0  0  0  0  0  0  0  0
    1.9021  -14.5341   17.6155 C   0  0  0  0  0  0  0  0  0  0  0  0
    0.5836  -14.0072   17.2443 N   0  0  0  0  0  0  0  0  0  0  0  0
   -3.3909  -15.0107   16.3736 C   0  0  0  0  0  0  0  0  0  0  0  0
   -4.1455  -16.7389   15.6358 C   0  0  0  0  0  0  0  0  0  0  0  0
   -6.9452  -18.1661   12.6017 H   0  0  0  0  0  0  0  0  0  0  0  0
   -7.8163  -19.7904   10.7959 H   0  0  0  0  0  0  0  0  0  0  0  0
   -6.1746  -20.5891   11.0348 H   0  0  0  0  0  0  0  0  0  0  0  0
   -8.8296  -20.8052   12.3025 H   0  0  0  0  0  0  0  0  0  0  0  0
   -7.4726  -21.5574   13.3815 H   0  0  0  0  0  0  0  0  0  0  0  0
   -9.8499  -22.4834   11.5450 H   0  0  0  0  0  0  0  0  0  0  0  0
   -8.0437  -24.6034   11.6378 H   0  0  0  0  0  0  0  0  0  0  0  0
   -8.7375  -24.7673   13.2381 H   0  0  0  0  0  0  0  0  0  0  0  0
  -10.5564  -24.8732   10.8867 H   0  0  0  0  0  0  0  0  0  0  0  0
   -9.8839  -26.2199   11.8004 H   0  0  0  0  0  0  0  0  0  0  0  0
  -11.8724  -23.2757   12.0845 H   0  0  0  0  0  0  0  0  0  0  0  0
  -12.2939  -23.6236   13.7276 H   0  0  0  0  0  0  0  0  0  0  0  0
  -10.4753  -21.6966   13.5618 H   0  0  0  0  0  0  0  0  0  0  0  0
   -9.8033  -23.1189   14.4121 H   0  0  0  0  0  0  0  0  0  0  0  0
   -2.9241  -17.7487   14.9030 H   0  0  0  0  0  0  0  0  0  0  0  0
   -2.9863  -16.2177   14.6201 H   0  0  0  0  0  0  0  0  0  0  0  0
   -4.0988  -16.9324   17.9218 H   0  0  0  0  0  0  0  0  0  0  0  0
   -2.6080  -17.5022   17.4065 H   0  0  0  0  0  0  0  0  0  0  0  0
   -2.5042  -13.8392   17.8452 H   0  0  0  0  0  0  0  0  0  0  0  0
    2.4524  -16.5837   18.1910 H   0  0  0  0  0  0  0  0  0  0  0  0
    2.8097  -13.9813   17.6888 H   0  0  0  0  0  0  0  0  0  0  0  0
    0.4769  -13.5011   16.3941 H   0  0  0  0  0  0  0  0  0  0  0  0
   -2.9985  -14.5209   15.5433 H   0  0  0  0  0  0  0  0  0  0  0  0
   -3.9767  -14.2661   16.8214 H   0  0  0  0  0  0  0  0  0  0  0  0
   -4.0923  -17.9206   16.4859 H   0  0  0  0  0  0  0  0  0  0  0  0
   -5.0441  -16.3023   16.3957 H   0  0  0  0  0  0  0  0  0  0  0  0
  1  2  2  0
  2  3  1  0
  3  4  1  0
  4  5  1  0
  5  6  1  0
  6  7  1  0
  7  8  1  0
  8  9  1  0
  9 10  1  0
 10 11  1  0
  2 12  1  0
 12 13  1  0
 13 14  1  0
 14 15  1  0
 15 16  1  0
 16 17  2  0
 17 18  1  0
 18 19  2  0
 19 20  1  0
 15 21  1  0
 21 22  1  0
 11  6  1  0
 22 12  1  0
 20 16  1  0
  3 23  1  0
  4 24  1  0
  4 25  1  0
  5 26  1  0
  5 27  1  0
  6 28  1  0
  7 29  1  0
  7 30  1  0
  8 31  1  0
  8 32  1  0
 10 33  1  0
 10 34  1  0
 11 35  1  0
 11 36  1  0
 13 37  1  0
 13 38  1  0
 14 39  1  0
 14 40  1  0
 15 41  1  0
 18 42  1  0
 19 43  1  0
 20 44  1  0
 21 45  1  0
 21 46  1  0
 22 47  1  0
 22 48  1  0
M  END
>  <Energy>  (149) 
1293.0128840587543

>  <compound_id>  (149) 
53932

>  <target_id>  (149) 
1

>  <reference_id>  (149) 
112

>  <inspiration_ids>  (149) 
[112, 63]

>  <energy_score>  (149) 
1321.017637572429

>  <distance_score>  (149) 
11.527085782019181

>  <path>  (149) 
/opt/xchem-fragalysis-2/maxwin/BulkDock/SCRATCH/511024/C53932-P112/C53932-P112.minimised.mol

>  <scratch_subdir>  (149) 
/opt/xchem-fragalysis-2/maxwin/BulkDock/SCRATCH/511024/C53932-P112

>  <fragmenstein_runtime>  (149) 
16.393649578094482

>  <fragmenstein_outcome>  (149) 
too moved

>  <fragmenstein_mode>  (149) 
expansion

>  <fragmenstein_error>  (149) 


$$$$
C53932-P63
     RDKit          3D

 48 50  0  0  0  0  0  0  0  0999 V2000
   -6.7066  -16.1772   13.7261 O   0  0  0  0  0  0  0  0  0  0  0  0
   -5.8861  -16.9996   13.8360 C   0  0  0  0  0  0  0  0  0  0  0  0
   -5.7464  -18.4054   13.1187 N   0  0  0  0  0  0  0  0  0  0  0  0
   -6.5834  -19.0415   12.0000 C   0  0  0  0  0  0  0  0  0  0  0  0
   -8.1256  -20.0326   11.7426 C   0  0  0  0  0  0  0  0  0  0  0  0
   -9.2557  -21.3863   11.8188 C   0  0  0  0  0  0  0  0  0  0  0  0
   -9.6681  -22.1132   10.4694 C   0  0  0  0  0  0  0  0  0  0  0  0
   -9.6592  -23.6490   10.4725 C   0  0  0  0  0  0  0  0  0  0  0  0
  -10.5040  -24.1251   11.5134 O   0  0  0  0  0  0  0  0  0  0  0  0
  -10.1555  -23.5792   12.7817 C   0  0  0  0  0  0  0  0  0  0  0  0
   -9.0025  -22.5633   12.7644 C   0  0  0  0  0  0  0  0  0  0  0  0
   -4.3850  -17.1516   14.9928 N   0  0  0  0  0  0  0  0  0  0  0  0
   -4.0368  -15.9742   16.3806 C   0  0  0  0  0  0  0  0  0  0  0  0
   -2.4519  -14.8012   15.7571 C   0  0  0  0  0  0  0  0  0  0  0  0
   -1.2458  -13.8474   16.7678 C   0  0  0  0  0  0  0  0  0  0  0  0
    0.8216  -13.7591   16.9590 C   0  0  0  0  0  0  0  0  0  0  0  0
    1.9599  -13.6897   17.9688 N   0  0  0  0  0  0  0  0  0  0  0  0
    3.3542  -12.4326   17.9239 C   0  0  0  0  0  0  0  0  0  0  0  0
    3.1320  -11.6519   16.7274 C   0  0  0  0  0  0  0  0  0  0  0  0
    1.7656  -12.6427   15.8756 N   0  0  0  0  0  0  0  0  0  0  0  0
   -2.4003  -15.0322   17.0501 C   0  0  0  0  0  0  0  0  0  0  0  0
   -3.7478  -16.2836   15.9733 C   0  0  0  0  0  0  0  0  0  0  0  0
   -4.8607  -18.8400   13.3850 H   0  0  0  0  0  0  0  0  0  0  0  0
   -6.6612  -18.1137   11.4780 H   0  0  0  0  0  0  0  0  0  0  0  0
   -5.7892  -19.5491   11.4656 H   0  0  0  0  0  0  0  0  0  0  0  0
   -8.2428  -19.9109   10.6838 H   0  0  0  0  0  0  0  0  0  0  0  0
   -7.4943  -20.7746   12.2156 H   0  0  0  0  0  0  0  0  0  0  0  0
  -10.1406  -20.8982   12.2308 H   0  0  0  0  0  0  0  0  0  0  0  0
  -10.7282  -22.0000   10.3043 H   0  0  0  0  0  0  0  0  0  0  0  0
   -9.2238  -21.6579    9.5893 H   0  0  0  0  0  0  0  0  0  0  0  0
  -10.0626  -24.0227    9.5249 H   0  0  0  0  0  0  0  0  0  0  0  0
   -8.6765  -24.1034   10.5987 H   0  0  0  0  0  0  0  0  0  0  0  0
  -11.0599  -23.1168   13.1721 H   0  0  0  0  0  0  0  0  0  0  0  0
   -9.9044  -24.4156   13.4421 H   0  0  0  0  0  0  0  0  0  0  0  0
   -8.8055  -22.2954   13.8024 H   0  0  0  0  0  0  0  0  0  0  0  0
   -8.1149  -23.0279   12.3403 H   0  0  0  0  0  0  0  0  0  0  0  0
   -5.1448  -15.7117   16.9128 H   0  0  0  0  0  0  0  0  0  0  0  0
   -3.9220  -16.5222   17.6523 H   0  0  0  0  0  0  0  0  0  0  0  0
   -1.8765  -15.4957   15.2732 H   0  0  0  0  0  0  0  0  0  0  0  0
   -2.6427  -14.6345   14.7483 H   0  0  0  0  0  0  0  0  0  0  0  0
   -1.5727  -13.0794   17.4943 H   0  0  0  0  0  0  0  0  0  0  0  0
    4.1428  -12.5449   18.6525 H   0  0  0  0  0  0  0  0  0  0  0  0
    3.7464  -11.0744   16.0399 H   0  0  0  0  0  0  0  0  0  0  0  0
    1.4060  -12.5430   14.9362 H   0  0  0  0  0  0  0  0  0  0  0  0
   -2.0659  -15.4763   18.0343 H   0  0  0  0  0  0  0  0  0  0  0  0
   -3.1074  -14.0858   17.1844 H   0  0  0  0  0  0  0  0  0  0  0  0
   -3.0613  -16.4982   14.9773 H   0  0  0  0  0  0  0  0  0  0  0  0
   -3.5880  -17.5898   16.5171 H   0  0  0  0  0  0  0  0  0  0  0  0
  1  2  2  0
  2  3  1  0
  3  4  1  0
  4  5  1  0
  5  6  1  0
  6  7  1  0
  7  8  1  0
  8  9  1  0
  9 10  1  0
 10 11  1  0
  2 12  1  0
 12 13  1  0
 13 14  1  0
 14 15  1  0
 15 16  1  0
 16 17  2  0
 17 18  1  0
 18 19  2  0
 19 20  1  0
 15 21  1  0
 21 22  1  0
 11  6  1  0
 22 12  1  0
 20 16  1  0
  3 23  1  0
  4 24  1  0
  4 25  1  0
  5 26  1  0
  5 27  1  0
  6 28  1  0
  7 29  1  0
  7 30  1  0
  8 31  1  0
  8 32  1  0
 10 33  1  0
 10 34  1  0
 11 35  1  0
 11 36  1  0
 13 37  1  0
 13 38  1  0
 14 39  1  0
 14 40  1  0
 15 41  1  0
 18 42  1  0
 19 43  1  0
 20 44  1  0
 21 45  1  0
 21 46  1  0
 22 47  1  0
 22 48  1  0
M  END
>  <Energy>  (150) 
1748.7235227333845

>  <compound_id>  (150) 
53932

>  <target_id>  (150) 
1

>  <reference_id>  (150) 
63

>  <inspiration_ids>  (150) 
[112, 63]

>  <energy_score>  (150) 
1776.7282762470784

>  <distance_score>  (150) 
10.877579663991572

>  <path>  (150) 
/opt/xchem-fragalysis-2/maxwin/BulkDock/SCRATCH/511024/C53932-P63/C53932-P63.minimised.mol

>  <scratch_subdir>  (150) 
/opt/xchem-fragalysis-2/maxwin/BulkDock/SCRATCH/511024/C53932-P63

>  <fragmenstein_runtime>  (150) 
17.10429835319519

>  <fragmenstein_outcome>  (150) 
too moved

>  <fragmenstein_mode>  (150) 
expansion

>  <fragmenstein_error>  (150) 


$$$$
C53933-P112
     RDKit          3D

 48 50  0  0  0  0  0  0  0  0999 V2000
  -10.4174  -17.2031   13.9299 O   0  0  0  0  0  0  0  0  0  0  0  0
   -9.6411  -17.4641   13.0945 C   0  0  0  0  0  0  0  0  0  0  0  0
   -9.3353  -19.1699   12.4129 N   0  0  0  0  0  0  0  0  0  0  0  0
  -10.0287  -20.8363   12.9359 C   0  0  0  0  0  0  0  0  0  0  0  0
  -10.5822  -22.3426   12.3671 C   0  0  0  0  0  0  0  0  0  0  0  0
  -10.4693  -23.6785   13.1906 C   0  0  0  0  0  0  0  0  0  0  0  0
   -9.5917  -24.7948   12.5896 C   0  0  0  0  0  0  0  0  0  0  0  0
  -10.2344  -25.6593   11.5019 C   0  0  0  0  0  0  0  0  0  0  0  0
  -11.5270  -26.1289   11.8596 O   0  0  0  0  0  0  0  0  0  0  0  0
  -12.4010  -25.0525   12.1557 C   0  0  0  0  0  0  0  0  0  0  0  0
  -11.8783  -24.3419   13.3902 C   0  0  0  0  0  0  0  0  0  0  0  0
   -8.4807  -16.5113   12.3022 N   0  0  0  0  0  0  0  0  0  0  0  0
   -8.0814  -14.6070   12.2859 C   0  0  0  0  0  0  0  0  0  0  0  0
   -6.8841  -13.6529   12.9774 C   0  0  0  0  0  0  0  0  0  0  0  0
   -5.2789  -14.1452   12.8675 C   0  0  0  0  0  0  0  0  0  0  0  0
   -3.5885  -13.3430   13.6954 C   0  0  0  0  0  0  0  0  0  0  0  0
   -1.5144  -12.9320   13.7896 C   0  0  0  0  0  0  0  0  0  0  0  0
   -1.3915  -10.9529   13.9013 N   0  0  0  0  0  0  0  0  0  0  0  0
   -3.0438  -10.2540   14.7341 C   0  0  0  0  0  0  0  0  0  0  0  0
   -4.3146  -11.3957   13.9882 N   0  0  0  0  0  0  0  0  0  0  0  0
   -6.2035  -15.5139   12.6265 C   0  0  0  0  0  0  0  0  0  0  0  0
   -8.1746  -15.2892   12.6374 C   0  0  0  0  0  0  0  0  0  0  0  0
   -8.5713  -19.1482   11.7734 H   0  0  0  0  0  0  0  0  0  0  0  0
  -10.3579  -20.6710   13.9459 H   0  0  0  0  0  0  0  0  0  0  0  0
   -9.0454  -21.3638   12.8602 H   0  0  0  0  0  0  0  0  0  0  0  0
  -11.6513  -22.2529   12.4108 H   0  0  0  0  0  0  0  0  0  0  0  0
  -10.2779  -22.5161   11.3403 H   0  0  0  0  0  0  0  0  0  0  0  0
  -10.0446  -23.4165   14.1648 H   0  0  0  0  0  0  0  0  0  0  0  0
   -8.6303  -24.4123   12.2474 H   0  0  0  0  0  0  0  0  0  0  0  0
   -9.3675  -25.4812   13.4179 H   0  0  0  0  0  0  0  0  0  0  0  0
   -9.6043  -26.5369   11.3211 H   0  0  0  0  0  0  0  0  0  0  0  0
  -10.3123  -25.1353   10.5549 H   0  0  0  0  0  0  0  0  0  0  0  0
  -13.3906  -25.4742   12.3585 H   0  0  0  0  0  0  0  0  0  0  0  0
  -12.4929  -24.3843   11.2926 H   0  0  0  0  0  0  0  0  0  0  0  0
  -12.6444  -23.6306   13.6997 H   0  0  0  0  0  0  0  0  0  0  0  0
  -11.7810  -25.0920   14.1866 H   0  0  0  0  0  0  0  0  0  0  0  0
   -7.8115  -14.4329   11.0942 H   0  0  0  0  0  0  0  0  0  0  0  0
   -9.1108  -13.8766   12.1782 H   0  0  0  0  0  0  0  0  0  0  0  0
   -7.1317  -12.5987   12.7543 H   0  0  0  0  0  0  0  0  0  0  0  0
   -7.2427  -13.9715   13.9083 H   0  0  0  0  0  0  0  0  0  0  0  0
   -5.4860  -13.1494   12.3835 H   0  0  0  0  0  0  0  0  0  0  0  0
   -0.6705  -13.1865   13.0929 H   0  0  0  0  0  0  0  0  0  0  0  0
   -1.3612  -10.5946   12.9646 H   0  0  0  0  0  0  0  0  0  0  0  0
   -3.1479   -9.1835   14.5324 H   0  0  0  0  0  0  0  0  0  0  0  0
   -6.0123  -16.3573   13.3031 H   0  0  0  0  0  0  0  0  0  0  0  0
   -6.0977  -15.8107   11.5824 H   0  0  0  0  0  0  0  0  0  0  0  0
   -9.0458  -15.0353   13.6268 H   0  0  0  0  0  0  0  0  0  0  0  0
   -7.8940  -15.7748   13.7428 H   0  0  0  0  0  0  0  0  0  0  0  0
  1  2  2  0
  2  3  1  0
  3  4  1  0
  4  5  1  0
  5  6  1  0
  6  7  1  0
  7  8  1  0
  8  9  1  0
  9 10  1  0
 10 11  1  0
  2 12  1  0
 12 13  1  0
 13 14  1  0
 14 15  1  0
 15 16  1  0
 16 17  2  0
 17 18  1  0
 18 19  1  0
 19 20  2  0
 15 21  1  0
 21 22  1  0
 11  6  1  0
 22 12  1  0
 20 16  1  0
  3 23  1  0
  4 24  1  0
  4 25  1  0
  5 26  1  0
  5 27  1  0
  6 28  1  0
  7 29  1  0
  7 30  1  0
  8 31  1  0
  8 32  1  0
 10 33  1  0
 10 34  1  0
 11 35  1  0
 11 36  1  0
 13 37  1  0
 13 38  1  0
 14 39  1  0
 14 40  1  0
 15 41  1  0
 17 42  1  0
 18 43  1  0
 19 44  1  0
 21 45  1  0
 21 46  1  0
 22 47  1  0
 22 48  1  0
M  END
>  <Energy>  (151) 
1829.8619964339553

>  <compound_id>  (151) 
53933

>  <target_id>  (151) 
1

>  <reference_id>  (151) 
112

>  <inspiration_ids>  (151) 
[112, 63]

>  <energy_score>  (151) 
1858.578700192032

>  <distance_score>  (151) 
11.473357608267444

>  <path>  (151) 
/opt/xchem-fragalysis-2/maxwin/BulkDock/SCRATCH/511024/C53933-P112/C53933-P112.minimised.mol

>  <scratch_subdir>  (151) 
/opt/xchem-fragalysis-2/maxwin/BulkDock/SCRATCH/511024/C53933-P112

>  <fragmenstein_runtime>  (151) 
13.66214895248413

>  <fragmenstein_outcome>  (151) 
too moved

>  <fragmenstein_mode>  (151) 
expansion

>  <fragmenstein_error>  (151) 


$$$$
C53933-P63
     RDKit          3D

 48 50  0  0  0  0  0  0  0  0999 V2000
   -7.0357  -14.9829   15.8017 O   0  0  0  0  0  0  0  0  0  0  0  0
   -6.7411  -15.7294   16.6031 C   0  0  0  0  0  0  0  0  0  0  0  0
   -7.7413  -16.6640   17.4840 N   0  0  0  0  0  0  0  0  0  0  0  0
   -9.1819  -16.7050   17.5386 C   0  0  0  0  0  0  0  0  0  0  0  0
   -9.9044  -16.6110   16.1951 C   0  0  0  0  0  0  0  0  0  0  0  0
  -11.2118  -15.8066   16.3321 C   0  0  0  0  0  0  0  0  0  0  0  0
  -12.4135  -16.6712   16.7067 C   0  0  0  0  0  0  0  0  0  0  0  0
  -13.7422  -15.9326   16.5795 C   0  0  0  0  0  0  0  0  0  0  0  0
  -13.5715  -14.5598   16.2800 O   0  0  0  0  0  0  0  0  0  0  0  0
  -12.8500  -14.3316   15.0762 C   0  0  0  0  0  0  0  0  0  0  0  0
  -11.4854  -15.0083   15.0643 C   0  0  0  0  0  0  0  0  0  0  0  0
   -5.0859  -16.2708   17.2496 N   0  0  0  0  0  0  0  0  0  0  0  0
   -3.6631  -16.0243   16.8812 C   0  0  0  0  0  0  0  0  0  0  0  0
   -2.2708  -14.6492   16.1500 C   0  0  0  0  0  0  0  0  0  0  0  0
   -1.1288  -13.7724   16.9555 C   0  0  0  0  0  0  0  0  0  0  0  0
    0.9133  -13.7428   16.9719 C   0  0  0  0  0  0  0  0  0  0  0  0
    1.7481  -12.6766   15.8624 C   0  0  0  0  0  0  0  0  0  0  0  0
    3.1053  -11.6947   16.7176 N   0  0  0  0  0  0  0  0  0  0  0  0
    3.4072  -12.6323   17.9907 C   0  0  0  0  0  0  0  0  0  0  0  0
    2.1976  -13.7137   18.0714 N   0  0  0  0  0  0  0  0  0  0  0  0
   -2.0375  -14.7247   17.7448 C   0  0  0  0  0  0  0  0  0  0  0  0
   -3.7066  -15.5585   16.7880 C   0  0  0  0  0  0  0  0  0  0  0  0
   -7.1950  -17.2906   18.0626 H   0  0  0  0  0  0  0  0  0  0  0  0
   -9.4639  -17.6263   18.0581 H   0  0  0  0  0  0  0  0  0  0  0  0
   -9.4541  -15.8719   18.1944 H   0  0  0  0  0  0  0  0  0  0  0  0
   -9.2565  -16.1195   15.4625 H   0  0  0  0  0  0  0  0  0  0  0  0
  -10.1119  -17.6048   15.7938 H   0  0  0  0  0  0  0  0  0  0  0  0
  -11.0888  -15.0588   17.1283 H   0  0  0  0  0  0  0  0  0  0  0  0
  -12.4574  -17.5603   16.0821 H   0  0  0  0  0  0  0  0  0  0  0  0
  -12.2980  -17.0330   17.7355 H   0  0  0  0  0  0  0  0  0  0  0  0
  -14.2773  -15.9784   17.5337 H   0  0  0  0  0  0  0  0  0  0  0  0
  -14.3956  -16.3917   15.8337 H   0  0  0  0  0  0  0  0  0  0  0  0
  -12.7178  -13.2477   14.9841 H   0  0  0  0  0  0  0  0  0  0  0  0
  -13.4556  -14.6296   14.2218 H   0  0  0  0  0  0  0  0  0  0  0  0
  -11.3698  -15.6313   14.1779 H   0  0  0  0  0  0  0  0  0  0  0  0
  -10.7141  -14.2342   14.9514 H   0  0  0  0  0  0  0  0  0  0  0  0
   -3.3724  -16.6423   18.0857 H   0  0  0  0  0  0  0  0  0  0  0  0
   -3.6831  -17.1996   16.2151 H   0  0  0  0  0  0  0  0  0  0  0  0
   -2.9445  -13.8221   16.1537 H   0  0  0  0  0  0  0  0  0  0  0  0
   -2.1375  -14.9236   15.1207 H   0  0  0  0  0  0  0  0  0  0  0  0
   -0.7947  -14.3094   16.1059 H   0  0  0  0  0  0  0  0  0  0  0  0
    1.5297  -12.4814   14.8093 H   0  0  0  0  0  0  0  0  0  0  0  0
    3.8633  -11.4495   16.1085 H   0  0  0  0  0  0  0  0  0  0  0  0
    4.3444  -12.6133   18.5328 H   0  0  0  0  0  0  0  0  0  0  0  0
   -1.7393  -15.3439   18.6193 H   0  0  0  0  0  0  0  0  0  0  0  0
   -2.2648  -13.7527   18.2252 H   0  0  0  0  0  0  0  0  0  0  0  0
   -3.5994  -15.8072   15.3228 H   0  0  0  0  0  0  0  0  0  0  0  0
   -4.1552  -14.3646   17.0053 H   0  0  0  0  0  0  0  0  0  0  0  0
  1  2  2  0
  2  3  1  0
  3  4  1  0
  4  5  1  0
  5  6  1  0
  6  7  1  0
  7  8  1  0
  8  9  1  0
  9 10  1  0
 10 11  1  0
  2 12  1  0
 12 13  1  0
 13 14  1  0
 14 15  1  0
 15 16  1  0
 16 17  2  0
 17 18  1  0
 18 19  1  0
 19 20  2  0
 15 21  1  0
 21 22  1  0
 11  6  1  0
 22 12  1  0
 20 16  1  0
  3 23  1  0
  4 24  1  0
  4 25  1  0
  5 26  1  0
  5 27  1  0
  6 28  1  0
  7 29  1  0
  7 30  1  0
  8 31  1  0
  8 32  1  0
 10 33  1  0
 10 34  1  0
 11 35  1  0
 11 36  1  0
 13 37  1  0
 13 38  1  0
 14 39  1  0
 14 40  1  0
 15 41  1  0
 17 42  1  0
 18 43  1  0
 19 44  1  0
 21 45  1  0
 21 46  1  0
 22 47  1  0
 22 48  1  0
M  END
>  <Energy>  (152) 
1447.259471126993

>  <compound_id>  (152) 
53933

>  <target_id>  (152) 
1

>  <reference_id>  (152) 
63

>  <inspiration_ids>  (152) 
[112, 63]

>  <energy_score>  (152) 
1475.9761748850597

>  <distance_score>  (152) 
12.179974375407442

>  <path>  (152) 
/opt/xchem-fragalysis-2/maxwin/BulkDock/SCRATCH/511024/C53933-P63/C53933-P63.minimised.mol

>  <scratch_subdir>  (152) 
/opt/xchem-fragalysis-2/maxwin/BulkDock/SCRATCH/511024/C53933-P63

>  <fragmenstein_runtime>  (152) 
22.915204286575317

>  <fragmenstein_outcome>  (152) 
too moved

>  <fragmenstein_mode>  (152) 
expansion

>  <fragmenstein_error>  (152) 


$$$$
C53945-P112
     RDKit          3D

 41 43  0  0  0  0  0  0  0  0999 V2000
   -2.5123  -14.2220   11.3799 C   0  0  0  0  0  0  0  0  0  0  0  0
   -3.9664  -14.0422   11.5499 N   0  0  0  0  0  0  0  0  0  0  0  0
   -3.5905  -12.5353   11.2399 C   0  0  0  0  0  0  0  0  0  0  0  0
   -2.4449  -11.5663   11.6843 C   0  0  0  0  0  0  0  0  0  0  0  0
   -1.1340  -11.7280   11.6212 N   0  0  0  0  0  0  0  0  0  0  0  0
   -0.5886  -10.4686   11.5462 C   0  0  0  0  0  0  0  0  0  0  0  0
   -1.5384   -9.5112   11.7712 C   0  0  0  0  0  0  0  0  0  0  0  0
   -2.7030  -10.2166   11.9066 N   0  0  0  0  0  0  0  0  0  0  0  0
   -4.4108  -14.6803   12.8008 C   0  0  0  0  0  0  0  0  0  0  0  0
   -4.5052  -14.2352   13.8867 O   0  0  0  0  0  0  0  0  0  0  0  0
   -4.8067  -16.0432   12.2643 N   0  0  0  0  0  0  0  0  0  0  0  0
   -5.4815  -17.1173   12.8911 C   0  0  0  0  0  0  0  0  0  0  0  0
   -5.8952  -16.8442   14.2244 C   0  0  0  0  0  0  0  0  0  0  0  0
   -7.2162  -16.6644   14.2373 N   0  0  0  0  0  0  0  0  0  0  0  0
   -7.6436  -17.1612   13.0064 O   0  0  0  0  0  0  0  0  0  0  0  0
   -6.5722  -17.8843   12.3884 C   0  0  0  0  0  0  0  0  0  0  0  0
   -7.0319  -19.5759   11.8245 C   0  0  0  0  0  0  0  0  0  0  0  0
   -6.1891  -20.7741   12.1460 C   0  0  0  0  0  0  0  0  0  0  0  0
   -6.9582  -21.9618   12.7522 C   0  0  0  0  0  0  0  0  0  0  0  0
   -8.2207  -22.4449   12.4255 O   0  0  0  0  0  0  0  0  0  0  0  0
   -9.1525  -21.4398   12.2848 C   0  0  0  0  0  0  0  0  0  0  0  0
   -8.5411  -20.0698   11.6812 C   0  0  0  0  0  0  0  0  0  0  0  0
   -2.3723  -15.3074   11.2743 H   0  0  0  0  0  0  0  0  0  0  0  0
   -2.1089  -13.8350   10.4565 H   0  0  0  0  0  0  0  0  0  0  0  0
   -1.9372  -13.9852   12.2817 H   0  0  0  0  0  0  0  0  0  0  0  0
   -3.6808  -12.4378   10.1451 H   0  0  0  0  0  0  0  0  0  0  0  0
   -4.4982  -12.0410   11.6213 H   0  0  0  0  0  0  0  0  0  0  0  0
    0.4650  -10.3319   11.3481 H   0  0  0  0  0  0  0  0  0  0  0  0
   -1.4991   -8.4329   11.8177 H   0  0  0  0  0  0  0  0  0  0  0  0
   -3.6249   -9.8135   11.9979 H   0  0  0  0  0  0  0  0  0  0  0  0
   -4.6623  -16.0632   11.2663 H   0  0  0  0  0  0  0  0  0  0  0  0
   -5.3303  -16.4172   15.0420 H   0  0  0  0  0  0  0  0  0  0  0  0
   -6.7617  -19.4702   10.7979 H   0  0  0  0  0  0  0  0  0  0  0  0
   -5.7059  -21.1396   11.2289 H   0  0  0  0  0  0  0  0  0  0  0  0
   -5.3156  -20.4738   12.7139 H   0  0  0  0  0  0  0  0  0  0  0  0
   -7.1323  -21.7511   13.7845 H   0  0  0  0  0  0  0  0  0  0  0  0
   -6.3756  -22.8490   12.5218 H   0  0  0  0  0  0  0  0  0  0  0  0
   -9.7629  -21.3616   13.1932 H   0  0  0  0  0  0  0  0  0  0  0  0
   -9.8737  -21.9315   11.6294 H   0  0  0  0  0  0  0  0  0  0  0  0
   -9.1989  -19.2806   12.0177 H   0  0  0  0  0  0  0  0  0  0  0  0
   -8.6898  -20.1570   10.6012 H   0  0  0  0  0  0  0  0  0  0  0  0
  1  2  1  0
  2  3  1  0
  3  4  1  0
  4  5  2  0
  5  6  1  0
  6  7  2  0
  7  8  1  0
  2  9  1  0
  9 10  2  0
  9 11  1  0
 11 12  1  0
 12 13  1  0
 13 14  2  0
 14 15  1  0
 15 16  1  0
 16 17  1  0
 17 18  1  0
 18 19  1  0
 19 20  1  0
 20 21  1  0
 21 22  1  0
  8  4  1  0
 16 12  2  0
 22 17  1  0
  1 23  1  0
  1 24  1  0
  1 25  1  0
  3 26  1  0
  3 27  1  0
  6 28  1  0
  7 29  1  0
  8 30  1  0
 11 31  1  0
 13 32  1  0
 17 33  1  0
 18 34  1  0
 18 35  1  0
 19 36  1  0
 19 37  1  0
 21 38  1  0
 21 39  1  0
 22 40  1  0
 22 41  1  0
M  END
>  <Energy>  (153) 
196.41400844834158

>  <compound_id>  (153) 
53945

>  <target_id>  (153) 
1

>  <reference_id>  (153) 
112

>  <inspiration_ids>  (153) 
[112, 63]

>  <energy_score>  (153) 
174.9559316053133

>  <distance_score>  (153) 
12.049208947690817

>  <path>  (153) 
/opt/xchem-fragalysis-2/maxwin/BulkDock/SCRATCH/511024/C53945-P112/C53945-P112.minimised.mol

>  <scratch_subdir>  (153) 
/opt/xchem-fragalysis-2/maxwin/BulkDock/SCRATCH/511024/C53945-P112

>  <fragmenstein_runtime>  (153) 
15.263559341430664

>  <fragmenstein_outcome>  (153) 
too moved

>  <fragmenstein_mode>  (153) 
expansion

>  <fragmenstein_error>  (153) 


$$$$
C53945-P63
     RDKit          3D

 41 43  0  0  0  0  0  0  0  0999 V2000
    2.3391  -20.4157    9.3249 C   0  0  0  0  0  0  0  0  0  0  0  0
    2.1659  -20.0831   10.7841 N   0  0  0  0  0  0  0  0  0  0  0  0
    3.6453  -19.6300   10.6281 C   0  0  0  0  0  0  0  0  0  0  0  0
    4.3438  -19.1082   11.9013 C   0  0  0  0  0  0  0  0  0  0  0  0
    5.6557  -19.1704   12.1162 N   0  0  0  0  0  0  0  0  0  0  0  0
    5.8680  -18.7595   13.4085 C   0  0  0  0  0  0  0  0  0  0  0  0
    4.7005  -18.2902   13.9363 C   0  0  0  0  0  0  0  0  0  0  0  0
    3.7463  -18.4745   12.9582 N   0  0  0  0  0  0  0  0  0  0  0  0
    0.9342  -19.2894   10.9805 C   0  0  0  0  0  0  0  0  0  0  0  0
    0.7815  -18.1218   10.9761 O   0  0  0  0  0  0  0  0  0  0  0  0
   -0.0762  -20.4086   11.1722 N   0  0  0  0  0  0  0  0  0  0  0  0
   -1.4314  -20.3596   11.4855 C   0  0  0  0  0  0  0  0  0  0  0  0
   -1.9831  -19.1432   11.9574 C   0  0  0  0  0  0  0  0  0  0  0  0
   -3.1755  -19.2672   12.5180 N   0  0  0  0  0  0  0  0  0  0  0  0
   -3.5496  -20.5376   12.1742 O   0  0  0  0  0  0  0  0  0  0  0  0
   -2.5466  -21.1971   11.4808 C   0  0  0  0  0  0  0  0  0  0  0  0
   -3.1121  -22.4820   10.9463 C   0  0  0  0  0  0  0  0  0  0  0  0
   -3.2692  -22.5805    9.4352 C   0  0  0  0  0  0  0  0  0  0  0  0
   -3.9551  -23.9015    9.0464 C   0  0  0  0  0  0  0  0  0  0  0  0
   -4.6311  -24.5186   10.1447 O   0  0  0  0  0  0  0  0  0  0  0  0
   -3.7232  -24.8772   11.1995 C   0  0  0  0  0  0  0  0  0  0  0  0
   -2.6562  -23.8044   11.5184 C   0  0  0  0  0  0  0  0  0  0  0  0
    3.0391  -21.2384    9.1214 H   0  0  0  0  0  0  0  0  0  0  0  0
    1.3738  -20.8316    8.9995 H   0  0  0  0  0  0  0  0  0  0  0  0
    2.4572  -19.5416    8.6669 H   0  0  0  0  0  0  0  0  0  0  0  0
    4.3022  -20.4623   10.3281 H   0  0  0  0  0  0  0  0  0  0  0  0
    3.7209  -18.7597    9.9555 H   0  0  0  0  0  0  0  0  0  0  0  0
    6.8502  -18.7919   13.8609 H   0  0  0  0  0  0  0  0  0  0  0  0
    4.4323  -17.8756   14.8937 H   0  0  0  0  0  0  0  0  0  0  0  0
    2.7556  -18.2594   13.0687 H   0  0  0  0  0  0  0  0  0  0  0  0
    0.3806  -21.2982   11.0356 H   0  0  0  0  0  0  0  0  0  0  0  0
   -1.5049  -18.1815   11.9569 H   0  0  0  0  0  0  0  0  0  0  0  0
   -4.1451  -22.4367   11.2710 H   0  0  0  0  0  0  0  0  0  0  0  0
   -3.8630  -21.7364    9.0641 H   0  0  0  0  0  0  0  0  0  0  0  0
   -2.3008  -22.5047    8.9256 H   0  0  0  0  0  0  0  0  0  0  0  0
   -4.6800  -23.7278    8.2451 H   0  0  0  0  0  0  0  0  0  0  0  0
   -3.2149  -24.6088    8.6521 H   0  0  0  0  0  0  0  0  0  0  0  0
   -3.2369  -25.8239   10.9381 H   0  0  0  0  0  0  0  0  0  0  0  0
   -4.3368  -25.0704   12.0815 H   0  0  0  0  0  0  0  0  0  0  0  0
   -2.4760  -23.7658   12.5983 H   0  0  0  0  0  0  0  0  0  0  0  0
   -1.6996  -24.0940   11.0650 H   0  0  0  0  0  0  0  0  0  0  0  0
  1  2  1  0
  2  3  1  0
  3  4  1  0
  4  5  2  0
  5  6  1  0
  6  7  2  0
  7  8  1  0
  2  9  1  0
  9 10  2  0
  9 11  1  0
 11 12  1  0
 12 13  1  0
 13 14  2  0
 14 15  1  0
 15 16  1  0
 16 17  1  0
 17 18  1  0
 18 19  1  0
 19 20  1  0
 20 21  1  0
 21 22  1  0
  8  4  1  0
 16 12  2  0
 22 17  1  0
  1 23  1  0
  1 24  1  0
  1 25  1  0
  3 26  1  0
  3 27  1  0
  6 28  1  0
  7 29  1  0
  8 30  1  0
 11 31  1  0
 13 32  1  0
 17 33  1  0
 18 34  1  0
 18 35  1  0
 19 36  1  0
 19 37  1  0
 21 38  1  0
 21 39  1  0
 22 40  1  0
 22 41  1  0
M  END
>  <Energy>  (154) 
61.34153135975977

>  <compound_id>  (154) 
53945

>  <target_id>  (154) 
1

>  <reference_id>  (154) 
63

>  <inspiration_ids>  (154) 
[112, 63]

>  <energy_score>  (154) 
39.883454516740585

>  <distance_score>  (154) 
13.906763364796264

>  <path>  (154) 
/opt/xchem-fragalysis-2/maxwin/BulkDock/SCRATCH/511024/C53945-P63/C53945-P63.minimised.mol

>  <scratch_subdir>  (154) 
/opt/xchem-fragalysis-2/maxwin/BulkDock/SCRATCH/511024/C53945-P63

>  <fragmenstein_runtime>  (154) 
21.23955726623535

>  <fragmenstein_outcome>  (154) 
too moved

>  <fragmenstein_mode>  (154) 
expansion

>  <fragmenstein_error>  (154) 


$$$$
C53948-P112
     RDKit          3D

 42 44  0  0  0  0  0  0  0  0999 V2000
   -1.2957  -14.3224   13.5717 O   0  0  0  0  0  0  0  0  0  0  0  0
   -0.4954  -14.3771   12.7275 C   0  0  0  0  0  0  0  0  0  0  0  0
   -0.3975  -15.3546   11.5840 N   0  0  0  0  0  0  0  0  0  0  0  0
   -1.1589  -16.4874   11.2806 C   0  0  0  0  0  0  0  0  0  0  0  0
   -2.4785  -16.8577   11.7204 C   0  0  0  0  0  0  0  0  0  0  0  0
   -2.8100  -18.0132   11.0171 C   0  0  0  0  0  0  0  0  0  0  0  0
   -4.0469  -18.8662   10.7593 C   0  0  0  0  0  0  0  0  0  0  0  0
   -4.8549  -19.1991   12.0096 C   0  0  0  0  0  0  0  0  0  0  0  0
   -5.9876  -20.1707   11.6609 C   0  0  0  0  0  0  0  0  0  0  0  0
   -5.5906  -21.3711   11.0174 O   0  0  0  0  0  0  0  0  0  0  0  0
   -4.2133  -21.4323   10.6949 C   0  0  0  0  0  0  0  0  0  0  0  0
   -3.7572  -20.1711    9.9698 C   0  0  0  0  0  0  0  0  0  0  0  0
   -1.7105  -18.3545   10.2900 O   0  0  0  0  0  0  0  0  0  0  0  0
   -0.7079  -17.4262   10.4437 N   0  0  0  0  0  0  0  0  0  0  0  0
    0.7059  -13.3622   12.4424 N   0  0  0  0  0  0  0  0  0  0  0  0
    1.1209  -11.8184   13.2089 C   0  0  0  0  0  0  0  0  0  0  0  0
    0.8346  -11.0418   11.7324 C   0  0  0  0  0  0  0  0  0  0  0  0
    2.0001  -10.8831   10.9158 O   0  0  0  0  0  0  0  0  0  0  0  0
    2.7591  -10.6513   13.6281 C   0  0  0  0  0  0  0  0  0  0  0  0
    3.3549   -9.7644   14.3427 N   0  0  0  0  0  0  0  0  0  0  0  0
    4.5330   -9.5524   13.7554 C   0  0  0  0  0  0  0  0  0  0  0  0
    5.1434  -10.7385   13.7978 C   0  0  0  0  0  0  0  0  0  0  0  0
    4.1574  -11.0851   14.6464 N   0  0  0  0  0  0  0  0  0  0  0  0
    0.4444  -15.1884   11.0857 H   0  0  0  0  0  0  0  0  0  0  0  0
   -3.1225  -16.2961   12.3803 H   0  0  0  0  0  0  0  0  0  0  0  0
   -4.6841  -18.2436   10.1134 H   0  0  0  0  0  0  0  0  0  0  0  0
   -4.1712  -19.6438   12.7420 H   0  0  0  0  0  0  0  0  0  0  0  0
   -5.2637  -18.2874   12.4600 H   0  0  0  0  0  0  0  0  0  0  0  0
   -6.5985  -20.4898   12.4968 H   0  0  0  0  0  0  0  0  0  0  0  0
   -6.6884  -19.6667   11.0054 H   0  0  0  0  0  0  0  0  0  0  0  0
   -3.6173  -21.5973   11.5979 H   0  0  0  0  0  0  0  0  0  0  0  0
   -4.0627  -22.3048   10.0507 H   0  0  0  0  0  0  0  0  0  0  0  0
   -2.7023  -20.2993    9.7100 H   0  0  0  0  0  0  0  0  0  0  0  0
   -4.2874  -20.1013    9.0129 H   0  0  0  0  0  0  0  0  0  0  0  0
    1.1706  -13.6287   11.6024 H   0  0  0  0  0  0  0  0  0  0  0  0
    0.1404  -11.8716   13.6412 H   0  0  0  0  0  0  0  0  0  0  0  0
    0.5038  -10.0471   11.8540 H   0  0  0  0  0  0  0  0  0  0  0  0
    0.0259  -11.5706   11.2493 H   0  0  0  0  0  0  0  0  0  0  0  0
    2.5243  -10.1858   11.3589 H   0  0  0  0  0  0  0  0  0  0  0  0
    4.7456   -8.4901   13.6569 H   0  0  0  0  0  0  0  0  0  0  0  0
    6.0274  -11.2768   13.5893 H   0  0  0  0  0  0  0  0  0  0  0  0
    4.0015  -11.7809   15.3618 H   0  0  0  0  0  0  0  0  0  0  0  0
  1  2  2  0
  2  3  1  0
  3  4  1  0
  4  5  1  0
  5  6  2  0
  6  7  1  0
  7  8  1  0
  8  9  1  0
  9 10  1  0
 10 11  1  0
 11 12  1  0
  6 13  1  0
 13 14  1  0
  2 15  1  0
 15 16  1  0
 16 17  1  0
 17 18  1  0
 16 19  1  0
 19 20  2  0
 20 21  1  0
 21 22  2  0
 22 23  1  0
 14  4  2  0
 23 19  1  0
 12  7  1  0
  3 24  1  0
  5 25  1  0
  7 26  1  0
  8 27  1  0
  8 28  1  0
  9 29  1  0
  9 30  1  0
 11 31  1  0
 11 32  1  0
 12 33  1  0
 12 34  1  0
 15 35  1  0
 16 36  1  0
 17 37  1  0
 17 38  1  0
 18 39  1  0
 21 40  1  0
 22 41  1  0
 23 42  1  0
M  END
>  <Energy>  (155) 
317.32099719461365

>  <compound_id>  (155) 
53948

>  <target_id>  (155) 
1

>  <reference_id>  (155) 
112

>  <inspiration_ids>  (155) 
[112, 63]

>  <energy_score>  (155) 
338.45454023102855

>  <distance_score>  (155) 
12.572092586963869

>  <path>  (155) 
/opt/xchem-fragalysis-2/maxwin/BulkDock/SCRATCH/511024/C53948-P112/C53948-P112.minimised.mol

>  <scratch_subdir>  (155) 
/opt/xchem-fragalysis-2/maxwin/BulkDock/SCRATCH/511024/C53948-P112

>  <fragmenstein_runtime>  (155) 
18.289516925811768

>  <fragmenstein_outcome>  (155) 
too moved

>  <fragmenstein_mode>  (155) 
expansion

>  <fragmenstein_error>  (155) 


$$$$
C53948-P63
     RDKit          3D

 42 44  0  0  0  0  0  0  0  0999 V2000
   -1.8606  -17.9502   11.0032 O   0  0  0  0  0  0  0  0  0  0  0  0
   -2.2076  -17.8202   12.1104 C   0  0  0  0  0  0  0  0  0  0  0  0
   -3.5647  -17.8601   12.6956 N   0  0  0  0  0  0  0  0  0  0  0  0
   -4.7497  -18.1435   12.1348 C   0  0  0  0  0  0  0  0  0  0  0  0
   -6.0506  -18.2414   12.6640 C   0  0  0  0  0  0  0  0  0  0  0  0
   -6.6946  -19.2753   11.9071 C   0  0  0  0  0  0  0  0  0  0  0  0
   -8.1406  -20.3690   11.7135 C   0  0  0  0  0  0  0  0  0  0  0  0
   -8.2983  -21.9985   12.1176 C   0  0  0  0  0  0  0  0  0  0  0  0
   -9.5814  -22.5973   11.5364 C   0  0  0  0  0  0  0  0  0  0  0  0
  -10.7203  -22.1078   12.1830 O   0  0  0  0  0  0  0  0  0  0  0  0
  -10.4390  -20.8792   12.8313 C   0  0  0  0  0  0  0  0  0  0  0  0
   -9.5271  -19.8445   12.0163 C   0  0  0  0  0  0  0  0  0  0  0  0
   -5.8598  -19.2956   10.8409 O   0  0  0  0  0  0  0  0  0  0  0  0
   -4.7792  -18.5346   10.8883 N   0  0  0  0  0  0  0  0  0  0  0  0
   -1.4357  -17.5006   13.3070 N   0  0  0  0  0  0  0  0  0  0  0  0
   -0.0577  -17.1602   13.4642 C   0  0  0  0  0  0  0  0  0  0  0  0
    0.9343  -18.1456   12.8197 C   0  0  0  0  0  0  0  0  0  0  0  0
    0.8769  -18.2885   11.4034 O   0  0  0  0  0  0  0  0  0  0  0  0
   -0.0422  -15.7732   12.9154 C   0  0  0  0  0  0  0  0  0  0  0  0
    0.2770  -15.3191   11.7207 N   0  0  0  0  0  0  0  0  0  0  0  0
    0.2509  -13.9827   11.8601 C   0  0  0  0  0  0  0  0  0  0  0  0
   -0.1097  -13.6019   13.0830 C   0  0  0  0  0  0  0  0  0  0  0  0
   -0.4914  -14.7439   13.7023 N   0  0  0  0  0  0  0  0  0  0  0  0
   -3.4982  -17.7932   13.6848 H   0  0  0  0  0  0  0  0  0  0  0  0
   -6.3365  -17.7582   13.5847 H   0  0  0  0  0  0  0  0  0  0  0  0
   -8.2503  -20.3438   10.6383 H   0  0  0  0  0  0  0  0  0  0  0  0
   -7.6321  -22.7626   11.7634 H   0  0  0  0  0  0  0  0  0  0  0  0
   -8.2514  -22.1531   13.1969 H   0  0  0  0  0  0  0  0  0  0  0  0
   -9.6620  -22.3938   10.4633 H   0  0  0  0  0  0  0  0  0  0  0  0
   -9.5819  -23.6870   11.6533 H   0  0  0  0  0  0  0  0  0  0  0  0
  -11.3447  -20.3789   13.1273 H   0  0  0  0  0  0  0  0  0  0  0  0
  -10.0917  -21.2012   13.8134 H   0  0  0  0  0  0  0  0  0  0  0  0
   -9.5964  -18.8406   12.4213 H   0  0  0  0  0  0  0  0  0  0  0  0
   -9.8310  -19.6280   11.0213 H   0  0  0  0  0  0  0  0  0  0  0  0
   -2.0569  -17.3842   14.0765 H   0  0  0  0  0  0  0  0  0  0  0  0
    0.1319  -17.1505   14.5439 H   0  0  0  0  0  0  0  0  0  0  0  0
    0.7678  -19.1434   13.2408 H   0  0  0  0  0  0  0  0  0  0  0  0
    1.9603  -17.8612   13.0723 H   0  0  0  0  0  0  0  0  0  0  0  0
    0.0367  -17.8895   11.0886 H   0  0  0  0  0  0  0  0  0  0  0  0
    0.5816  -13.2131   11.2122 H   0  0  0  0  0  0  0  0  0  0  0  0
   -0.1467  -12.6062   13.4667 H   0  0  0  0  0  0  0  0  0  0  0  0
   -0.6762  -14.8015   14.6959 H   0  0  0  0  0  0  0  0  0  0  0  0
  1  2  2  0
  2  3  1  0
  3  4  1  0
  4  5  1  0
  5  6  2  0
  6  7  1  0
  7  8  1  0
  8  9  1  0
  9 10  1  0
 10 11  1  0
 11 12  1  0
  6 13  1  0
 13 14  1  0
  2 15  1  0
 15 16  1  0
 16 17  1  0
 17 18  1  0
 16 19  1  0
 19 20  2  0
 20 21  1  0
 21 22  2  0
 22 23  1  0
 14  4  2  0
 23 19  1  0
 12  7  1  0
  3 24  1  0
  5 25  1  0
  7 26  1  0
  8 27  1  0
  8 28  1  0
  9 29  1  0
  9 30  1  0
 11 31  1  0
 11 32  1  0
 12 33  1  0
 12 34  1  0
 15 35  1  0
 16 36  1  0
 17 37  1  0
 17 38  1  0
 18 39  1  0
 21 40  1  0
 22 41  1  0
 23 42  1  0
M  END
>  <Energy>  (156) 
88.595812405583303

>  <compound_id>  (156) 
53948

>  <target_id>  (156) 
1

>  <reference_id>  (156) 
63

>  <inspiration_ids>  (156) 
[112, 63]

>  <energy_score>  (156) 
109.72935544200865

>  <distance_score>  (156) 
12.268633949257097

>  <path>  (156) 
/opt/xchem-fragalysis-2/maxwin/BulkDock/SCRATCH/511024/C53948-P63/C53948-P63.minimised.mol

>  <scratch_subdir>  (156) 
/opt/xchem-fragalysis-2/maxwin/BulkDock/SCRATCH/511024/C53948-P63

>  <fragmenstein_runtime>  (156) 
24.800954818725586

>  <fragmenstein_outcome>  (156) 
too moved

>  <fragmenstein_mode>  (156) 
expansion

>  <fragmenstein_error>  (156) 


$$$$
C53949-P112
     RDKit          3D

 39 41  0  0  0  0  0  0  0  0999 V2000
   -0.4594  -14.8773   14.0619 C   0  0  0  0  0  0  0  0  0  0  0  0
   -0.5693  -14.5817   12.6474 N   0  0  0  0  0  0  0  0  0  0  0  0
    0.3804  -13.0839   13.1344 C   0  0  0  0  0  0  0  0  0  0  0  0
    1.6874  -12.1424   14.2892 C   0  0  0  0  0  0  0  0  0  0  0  0
    2.1214  -10.9102   13.4850 N   0  0  0  0  0  0  0  0  0  0  0  0
    3.7000  -10.2443   13.9156 C   0  0  0  0  0  0  0  0  0  0  0  0
    4.3619  -11.0752   14.7030 C   0  0  0  0  0  0  0  0  0  0  0  0
    3.3174  -11.7836   15.3260 N   0  0  0  0  0  0  0  0  0  0  0  0
   -0.1736  -15.7370   11.8753 C   0  0  0  0  0  0  0  0  0  0  0  0
    0.9001  -16.0499   11.4395 O   0  0  0  0  0  0  0  0  0  0  0  0
   -1.2322  -16.8313   11.5687 C   0  0  0  0  0  0  0  0  0  0  0  0
   -0.7582  -17.9857   10.8221 C   0  0  0  0  0  0  0  0  0  0  0  0
   -1.6784  -18.9018   10.5633 N   0  0  0  0  0  0  0  0  0  0  0  0
   -2.8056  -18.4026   11.1183 O   0  0  0  0  0  0  0  0  0  0  0  0
   -2.5806  -17.2152   11.7684 C   0  0  0  0  0  0  0  0  0  0  0  0
   -3.8697  -16.8229   12.4628 C   0  0  0  0  0  0  0  0  0  0  0  0
   -4.9936  -16.4343   11.4712 C   0  0  0  0  0  0  0  0  0  0  0  0
   -5.7220  -17.6174   10.8172 C   0  0  0  0  0  0  0  0  0  0  0  0
   -6.1951  -18.5472   11.7825 O   0  0  0  0  0  0  0  0  0  0  0  0
   -5.1289  -19.0913   12.5595 C   0  0  0  0  0  0  0  0  0  0  0  0
   -4.4096  -17.9850   13.3504 C   0  0  0  0  0  0  0  0  0  0  0  0
    0.3212  -15.5483   14.4006 H   0  0  0  0  0  0  0  0  0  0  0  0
   -1.0498  -14.3783   14.8035 H   0  0  0  0  0  0  0  0  0  0  0  0
   -1.1935  -15.7136   14.0766 H   0  0  0  0  0  0  0  0  0  0  0  0
   -0.3776  -12.2981   13.0570 H   0  0  0  0  0  0  0  0  0  0  0  0
    0.8082  -12.9945   12.1330 H   0  0  0  0  0  0  0  0  0  0  0  0
    4.1133   -9.4745   13.3162 H   0  0  0  0  0  0  0  0  0  0  0  0
    5.2721  -11.5191   14.3519 H   0  0  0  0  0  0  0  0  0  0  0  0
    3.1814  -11.9404   16.3166 H   0  0  0  0  0  0  0  0  0  0  0  0
    0.2482  -18.1587   10.4609 H   0  0  0  0  0  0  0  0  0  0  0  0
   -3.6409  -15.9613   13.1023 H   0  0  0  0  0  0  0  0  0  0  0  0
   -5.7413  -15.8659   12.0407 H   0  0  0  0  0  0  0  0  0  0  0  0
   -4.6077  -15.7640   10.6942 H   0  0  0  0  0  0  0  0  0  0  0  0
   -5.0856  -18.1339   10.0908 H   0  0  0  0  0  0  0  0  0  0  0  0
   -6.5913  -17.2446   10.2653 H   0  0  0  0  0  0  0  0  0  0  0  0
   -5.5449  -19.8210   13.2555 H   0  0  0  0  0  0  0  0  0  0  0  0
   -4.4688  -19.6750   11.9138 H   0  0  0  0  0  0  0  0  0  0  0  0
   -5.1333  -17.5502   14.0524 H   0  0  0  0  0  0  0  0  0  0  0  0
   -3.6013  -18.4225   13.9481 H   0  0  0  0  0  0  0  0  0  0  0  0
  1  2  1  0
  2  3  1  0
  3  4  1  0
  4  5  2  0
  5  6  1  0
  6  7  2  0
  7  8  1  0
  2  9  1  0
  9 10  2  0
  9 11  1  0
 11 12  1  0
 12 13  2  0
 13 14  1  0
 14 15  1  0
 15 16  1  0
 16 17  1  0
 17 18  1  0
 18 19  1  0
 19 20  1  0
 20 21  1  0
  8  4  1  0
 15 11  2  0
 21 16  1  0
  1 22  1  0
  1 23  1  0
  1 24  1  0
  3 25  1  0
  3 26  1  0
  6 27  1  0
  7 28  1  0
  8 29  1  0
 12 30  1  0
 16 31  1  0
 17 32  1  0
 17 33  1  0
 18 34  1  0
 18 35  1  0
 20 36  1  0
 20 37  1  0
 21 38  1  0
 21 39  1  0
M  END
>  <Energy>  (157) 
458.69861947841503

>  <compound_id>  (157) 
53949

>  <target_id>  (157) 
1

>  <reference_id>  (157) 
112

>  <inspiration_ids>  (157) 
[112, 63]

>  <energy_score>  (157) 
421.8188725871427

>  <distance_score>  (157) 
12.75370787222792

>  <path>  (157) 
/opt/xchem-fragalysis-2/maxwin/BulkDock/SCRATCH/511024/C53949-P112/C53949-P112.minimised.mol

>  <scratch_subdir>  (157) 
/opt/xchem-fragalysis-2/maxwin/BulkDock/SCRATCH/511024/C53949-P112

>  <fragmenstein_runtime>  (157) 
12.174245119094849

>  <fragmenstein_outcome>  (157) 
too moved

>  <fragmenstein_mode>  (157) 
expansion

>  <fragmenstein_error>  (157) 


$$$$
C53949-P63
     RDKit          3D

 39 41  0  0  0  0  0  0  0  0999 V2000
   -2.6096  -17.8399   15.1312 C   0  0  0  0  0  0  0  0  0  0  0  0
   -3.0555  -16.4085   15.1947 N   0  0  0  0  0  0  0  0  0  0  0  0
   -1.5383  -16.1635   15.1055 C   0  0  0  0  0  0  0  0  0  0  0  0
   -0.9673  -15.7304   13.7783 C   0  0  0  0  0  0  0  0  0  0  0  0
   -0.8776  -14.4995   13.3160 N   0  0  0  0  0  0  0  0  0  0  0  0
   -0.0978  -14.5523   12.1960 C   0  0  0  0  0  0  0  0  0  0  0  0
    0.2107  -15.8482   11.8979 C   0  0  0  0  0  0  0  0  0  0  0  0
   -0.2395  -16.5681   12.9679 N   0  0  0  0  0  0  0  0  0  0  0  0
   -3.9624  -16.2256   16.2755 C   0  0  0  0  0  0  0  0  0  0  0  0
   -3.7592  -15.9185   17.4191 O   0  0  0  0  0  0  0  0  0  0  0  0
   -5.3873  -16.5438   16.0043 C   0  0  0  0  0  0  0  0  0  0  0  0
   -6.2919  -16.7677   17.0940 C   0  0  0  0  0  0  0  0  0  0  0  0
   -7.5444  -16.9799   16.7151 N   0  0  0  0  0  0  0  0  0  0  0  0
   -7.4990  -16.9257   15.3470 O   0  0  0  0  0  0  0  0  0  0  0  0
   -6.2221  -16.6877   14.8991 C   0  0  0  0  0  0  0  0  0  0  0  0
   -6.1265  -16.6285   13.3934 C   0  0  0  0  0  0  0  0  0  0  0  0
   -7.5211  -16.4581   12.7194 C   0  0  0  0  0  0  0  0  0  0  0  0
   -7.5602  -16.8357   11.2489 C   0  0  0  0  0  0  0  0  0  0  0  0
   -6.9492  -18.0994   11.0341 O   0  0  0  0  0  0  0  0  0  0  0  0
   -5.5685  -18.0624   11.3766 C   0  0  0  0  0  0  0  0  0  0  0  0
   -5.3491  -17.8308   12.8549 C   0  0  0  0  0  0  0  0  0  0  0  0
   -2.0829  -18.1299   14.2127 H   0  0  0  0  0  0  0  0  0  0  0  0
   -3.5312  -18.4391   15.0942 H   0  0  0  0  0  0  0  0  0  0  0  0
   -2.1396  -18.1979   16.0614 H   0  0  0  0  0  0  0  0  0  0  0  0
   -1.4599  -15.2534   15.7227 H   0  0  0  0  0  0  0  0  0  0  0  0
   -0.8443  -16.8064   15.6775 H   0  0  0  0  0  0  0  0  0  0  0  0
    0.1496  -13.6427   11.6731 H   0  0  0  0  0  0  0  0  0  0  0  0
    0.7594  -16.3079   11.0891 H   0  0  0  0  0  0  0  0  0  0  0  0
   -0.0720  -17.5510   13.1288 H   0  0  0  0  0  0  0  0  0  0  0  0
   -6.0645  -16.7526   18.1519 H   0  0  0  0  0  0  0  0  0  0  0  0
   -5.5491  -15.7282   13.1395 H   0  0  0  0  0  0  0  0  0  0  0  0
   -8.2820  -17.0654   13.2117 H   0  0  0  0  0  0  0  0  0  0  0  0
   -7.8594  -15.4213   12.8426 H   0  0  0  0  0  0  0  0  0  0  0  0
   -7.0597  -16.0763   10.6362 H   0  0  0  0  0  0  0  0  0  0  0  0
   -8.5977  -16.8968   10.9040 H   0  0  0  0  0  0  0  0  0  0  0  0
   -5.0995  -19.0100   11.0992 H   0  0  0  0  0  0  0  0  0  0  0  0
   -5.0700  -17.2857   10.7830 H   0  0  0  0  0  0  0  0  0  0  0  0
   -5.5804  -18.7452   13.4081 H   0  0  0  0  0  0  0  0  0  0  0  0
   -4.2775  -17.6690   13.0064 H   0  0  0  0  0  0  0  0  0  0  0  0
  1  2  1  0
  2  3  1  0
  3  4  1  0
  4  5  2  0
  5  6  1  0
  6  7  2  0
  7  8  1  0
  2  9  1  0
  9 10  2  0
  9 11  1  0
 11 12  1  0
 12 13  2  0
 13 14  1  0
 14 15  1  0
 15 16  1  0
 16 17  1  0
 17 18  1  0
 18 19  1  0
 19 20  1  0
 20 21  1  0
  8  4  1  0
 15 11  2  0
 21 16  1  0
  1 22  1  0
  1 23  1  0
  1 24  1  0
  3 25  1  0
  3 26  1  0
  6 27  1  0
  7 28  1  0
  8 29  1  0
 12 30  1  0
 16 31  1  0
 17 32  1  0
 17 33  1  0
 18 34  1  0
 18 35  1  0
 20 36  1  0
 20 37  1  0
 21 38  1  0
 21 39  1  0
M  END
>  <Energy>  (158) 
71.190755603625476

>  <compound_id>  (158) 
53949

>  <target_id>  (158) 
1

>  <reference_id>  (158) 
63

>  <inspiration_ids>  (158) 
[112, 63]

>  <energy_score>  (158) 
34.31100871236015

>  <distance_score>  (158) 
13.816480585408701

>  <path>  (158) 
/opt/xchem-fragalysis-2/maxwin/BulkDock/SCRATCH/511024/C53949-P63/C53949-P63.minimised.mol

>  <scratch_subdir>  (158) 
/opt/xchem-fragalysis-2/maxwin/BulkDock/SCRATCH/511024/C53949-P63

>  <fragmenstein_runtime>  (158) 
16.468157052993774

>  <fragmenstein_outcome>  (158) 
too moved

>  <fragmenstein_mode>  (158) 
expansion

>  <fragmenstein_error>  (158) 


$$$$
C53956-P112
     RDKit          3D

 46 47  0  0  0  0  0  0  0  0999 V2000
   -2.8712  -24.9293   10.0026 C   0  0  0  0  0  0  0  0  0  0  0  0
   -4.0679  -24.3191   10.7280 C   0  0  0  0  0  0  0  0  0  0  0  0
   -4.1694  -22.7994   10.4411 C   0  0  0  0  0  0  0  0  0  0  0  0
   -3.1575  -21.9374   11.2516 C   0  0  0  0  0  0  0  0  0  0  0  0
   -2.0361  -21.2901   10.5678 N   0  0  0  0  0  0  0  0  0  0  0  0
   -1.4592  -19.9571   10.7282 C   0  0  0  0  0  0  0  0  0  0  0  0
   -1.8104  -19.0291   11.4049 O   0  0  0  0  0  0  0  0  0  0  0  0
   -0.1431  -19.8312    9.9004 C   0  0  0  0  0  0  0  0  0  0  0  0
    0.6506  -18.5399   10.1053 C   0  0  0  0  0  0  0  0  0  0  0  0
    1.7911  -18.2141    9.5109 N   0  0  0  0  0  0  0  0  0  0  0  0
    2.0744  -16.9301    9.8899 C   0  0  0  0  0  0  0  0  0  0  0  0
    1.1036  -16.4784   10.7428 C   0  0  0  0  0  0  0  0  0  0  0  0
    0.2468  -17.5150   10.9245 N   0  0  0  0  0  0  0  0  0  0  0  0
   -5.2822  -25.1057   10.4416 N   0  0  0  0  0  0  0  0  0  0  0  0
   -6.5974  -25.0606   11.0290 C   0  0  0  0  0  0  0  0  0  0  0  0
   -7.0624  -24.3193   11.8439 O   0  0  0  0  0  0  0  0  0  0  0  0
   -7.4790  -26.2592   10.5602 C   0  0  0  0  0  0  0  0  0  0  0  0
   -8.1869  -26.0220    9.2226 C   0  0  0  0  0  0  0  0  0  0  0  0
   -9.7130  -26.1296    9.3258 C   0  0  0  0  0  0  0  0  0  0  0  0
  -10.2082  -25.3292   10.3974 O   0  0  0  0  0  0  0  0  0  0  0  0
   -9.7442  -25.7464   11.6798 C   0  0  0  0  0  0  0  0  0  0  0  0
   -8.5133  -26.6546   11.6382 C   0  0  0  0  0  0  0  0  0  0  0  0
   -2.9941  -24.8623    8.9160 H   0  0  0  0  0  0  0  0  0  0  0  0
   -2.7634  -25.9897   10.2564 H   0  0  0  0  0  0  0  0  0  0  0  0
   -1.9398  -24.4231   10.2747 H   0  0  0  0  0  0  0  0  0  0  0  0
   -3.9201  -24.4505   11.8064 H   0  0  0  0  0  0  0  0  0  0  0  0
   -4.0859  -22.5955    9.3676 H   0  0  0  0  0  0  0  0  0  0  0  0
   -5.1678  -22.4736   10.7453 H   0  0  0  0  0  0  0  0  0  0  0  0
   -2.6998  -22.5280   12.0517 H   0  0  0  0  0  0  0  0  0  0  0  0
   -3.7084  -21.1200   11.7315 H   0  0  0  0  0  0  0  0  0  0  0  0
   -1.5233  -21.7890    9.8497 H   0  0  0  0  0  0  0  0  0  0  0  0
    0.5084  -20.6726   10.1629 H   0  0  0  0  0  0  0  0  0  0  0  0
   -0.4064  -19.9071    8.8393 H   0  0  0  0  0  0  0  0  0  0  0  0
    2.9411  -16.4092    9.5059 H   0  0  0  0  0  0  0  0  0  0  0  0
    0.9239  -15.5407   11.2347 H   0  0  0  0  0  0  0  0  0  0  0  0
   -0.6032  -17.5312   11.4810 H   0  0  0  0  0  0  0  0  0  0  0  0
   -5.2660  -25.8190    9.7221 H   0  0  0  0  0  0  0  0  0  0  0  0
   -6.8004  -27.1168   10.4524 H   0  0  0  0  0  0  0  0  0  0  0  0
   -7.9061  -25.0436    8.8242 H   0  0  0  0  0  0  0  0  0  0  0  0
   -7.8365  -26.7553    8.4860 H   0  0  0  0  0  0  0  0  0  0  0  0
  -10.0364  -27.1685    9.4630 H   0  0  0  0  0  0  0  0  0  0  0  0
  -10.1722  -25.7800    8.3954 H   0  0  0  0  0  0  0  0  0  0  0  0
   -9.5419  -24.8418   12.2615 H   0  0  0  0  0  0  0  0  0  0  0  0
  -10.5665  -26.2647   12.1852 H   0  0  0  0  0  0  0  0  0  0  0  0
   -8.8520  -27.6752   11.4114 H   0  0  0  0  0  0  0  0  0  0  0  0
   -8.0594  -26.7182   12.6300 H   0  0  0  0  0  0  0  0  0  0  0  0
  1  2  1  0
  2  3  1  0
  3  4  1  0
  4  5  1  0
  5  6  1  0
  6  7  2  0
  6  8  1  0
  8  9  1  0
  9 10  2  0
 10 11  1  0
 11 12  2  0
 12 13  1  0
  2 14  1  0
 14 15  1  0
 15 16  2  0
 15 17  1  0
 17 18  1  0
 18 19  1  0
 19 20  1  0
 20 21  1  0
 21 22  1  0
 13  9  1  0
 22 17  1  0
  1 23  1  0
  1 24  1  0
  1 25  1  0
  2 26  1  0
  3 27  1  0
  3 28  1  0
  4 29  1  0
  4 30  1  0
  5 31  1  0
  8 32  1  0
  8 33  1  0
 11 34  1  0
 12 35  1  0
 13 36  1  0
 14 37  1  0
 17 38  1  0
 18 39  1  0
 18 40  1  0
 19 41  1  0
 19 42  1  0
 21 43  1  0
 21 44  1  0
 22 45  1  0
 22 46  1  0
M  END
>  <Energy>  (159) 
9.3399529840623803

>  <compound_id>  (159) 
53956

>  <target_id>  (159) 
1

>  <reference_id>  (159) 
112

>  <inspiration_ids>  (159) 
[112, 63]

>  <energy_score>  (159) 
-6.4514702772786165

>  <distance_score>  (159) 
12.639251297676429

>  <path>  (159) 
/opt/xchem-fragalysis-2/maxwin/BulkDock/SCRATCH/511024/C53956-P112/C53956-P112.minimised.mol

>  <scratch_subdir>  (159) 
/opt/xchem-fragalysis-2/maxwin/BulkDock/SCRATCH/511024/C53956-P112

>  <fragmenstein_runtime>  (159) 
17.107149124145508

>  <fragmenstein_outcome>  (159) 
too moved

>  <fragmenstein_mode>  (159) 
expansion

>  <fragmenstein_error>  (159) 


$$$$
C53956-P63
     RDKit          3D

 46 47  0  0  0  0  0  0  0  0999 V2000
   -0.1252  -22.1725    8.1798 C   0  0  0  0  0  0  0  0  0  0  0  0
   -0.7383  -21.7601    9.5226 C   0  0  0  0  0  0  0  0  0  0  0  0
   -0.7225  -20.2124    9.6756 C   0  0  0  0  0  0  0  0  0  0  0  0
    0.7143  -19.6775   10.0096 C   0  0  0  0  0  0  0  0  0  0  0  0
    1.2303  -18.4875    9.3120 N   0  0  0  0  0  0  0  0  0  0  0  0
    2.4201  -17.6551    9.5760 C   0  0  0  0  0  0  0  0  0  0  0  0
    3.2153  -17.6953   10.4707 O   0  0  0  0  0  0  0  0  0  0  0  0
    2.5889  -16.5887    8.4437 C   0  0  0  0  0  0  0  0  0  0  0  0
    3.7364  -15.5732    8.5847 C   0  0  0  0  0  0  0  0  0  0  0  0
    5.0237  -15.8161    8.7670 N   0  0  0  0  0  0  0  0  0  0  0  0
    5.6893  -14.6337    8.5640 C   0  0  0  0  0  0  0  0  0  0  0  0
    4.8059  -13.6335    8.2518 C   0  0  0  0  0  0  0  0  0  0  0  0
    3.5737  -14.2221    8.3174 N   0  0  0  0  0  0  0  0  0  0  0  0
   -2.0534  -22.3943    9.6567 N   0  0  0  0  0  0  0  0  0  0  0  0
   -2.4236  -23.7855    9.8293 C   0  0  0  0  0  0  0  0  0  0  0  0
   -1.7518  -24.7799    9.8273 O   0  0  0  0  0  0  0  0  0  0  0  0
   -3.9620  -23.9620    9.9360 C   0  0  0  0  0  0  0  0  0  0  0  0
   -4.5502  -24.4271    8.5893 C   0  0  0  0  0  0  0  0  0  0  0  0
   -5.6681  -25.4673    8.7340 C   0  0  0  0  0  0  0  0  0  0  0  0
   -6.5197  -25.1546    9.8317 O   0  0  0  0  0  0  0  0  0  0  0  0
   -5.8408  -25.2436   11.0845 C   0  0  0  0  0  0  0  0  0  0  0  0
   -4.3367  -24.9796   11.0217 C   0  0  0  0  0  0  0  0  0  0  0  0
    0.8846  -21.7716    8.0528 H   0  0  0  0  0  0  0  0  0  0  0  0
   -0.7397  -21.8179    7.3446 H   0  0  0  0  0  0  0  0  0  0  0  0
   -0.0593  -23.2628    8.0966 H   0  0  0  0  0  0  0  0  0  0  0  0
   -0.1296  -22.2022   10.3212 H   0  0  0  0  0  0  0  0  0  0  0  0
   -1.1014  -19.7406    8.7613 H   0  0  0  0  0  0  0  0  0  0  0  0
   -1.3980  -19.9153   10.4871 H   0  0  0  0  0  0  0  0  0  0  0  0
    0.7705  -19.4535   11.0815 H   0  0  0  0  0  0  0  0  0  0  0  0
    1.4673  -20.4534    9.8336 H   0  0  0  0  0  0  0  0  0  0  0  0
    0.8347  -18.2269    8.4174 H   0  0  0  0  0  0  0  0  0  0  0  0
    1.6429  -16.0483    8.3532 H   0  0  0  0  0  0  0  0  0  0  0  0
    2.7547  -17.1354    7.5072 H   0  0  0  0  0  0  0  0  0  0  0  0
    6.7682  -14.5828    8.6302 H   0  0  0  0  0  0  0  0  0  0  0  0
    4.9371  -12.5931    7.9927 H   0  0  0  0  0  0  0  0  0  0  0  0
    2.7032  -13.7751    8.0699 H   0  0  0  0  0  0  0  0  0  0  0  0
   -2.8976  -21.8262    9.6343 H   0  0  0  0  0  0  0  0  0  0  0  0
   -4.3983  -23.0042   10.2140 H   0  0  0  0  0  0  0  0  0  0  0  0
   -4.9322  -23.5460    8.0609 H   0  0  0  0  0  0  0  0  0  0  0  0
   -3.7744  -24.8389    7.9320 H   0  0  0  0  0  0  0  0  0  0  0  0
   -5.2580  -26.4760    8.8657 H   0  0  0  0  0  0  0  0  0  0  0  0
   -6.2761  -25.4838    7.8236 H   0  0  0  0  0  0  0  0  0  0  0  0
   -6.3122  -24.5019   11.7264 H   0  0  0  0  0  0  0  0  0  0  0  0
   -6.0347  -26.2311   11.5157 H   0  0  0  0  0  0  0  0  0  0  0  0
   -3.8307  -25.9320   10.8122 H   0  0  0  0  0  0  0  0  0  0  0  0
   -3.9609  -24.6638   12.0000 H   0  0  0  0  0  0  0  0  0  0  0  0
  1  2  1  0
  2  3  1  0
  3  4  1  0
  4  5  1  0
  5  6  1  0
  6  7  2  0
  6  8  1  0
  8  9  1  0
  9 10  2  0
 10 11  1  0
 11 12  2  0
 12 13  1  0
  2 14  1  0
 14 15  1  0
 15 16  2  0
 15 17  1  0
 17 18  1  0
 18 19  1  0
 19 20  1  0
 20 21  1  0
 21 22  1  0
 13  9  1  0
 22 17  1  0
  1 23  1  0
  1 24  1  0
  1 25  1  0
  2 26  1  0
  3 27  1  0
  3 28  1  0
  4 29  1  0
  4 30  1  0
  5 31  1  0
  8 32  1  0
  8 33  1  0
 11 34  1  0
 12 35  1  0
 13 36  1  0
 14 37  1  0
 17 38  1  0
 18 39  1  0
 18 40  1  0
 19 41  1  0
 19 42  1  0
 21 43  1  0
 21 44  1  0
 22 45  1  0
 22 46  1  0
M  END
>  <Energy>  (160) 
23.459438791865214

>  <compound_id>  (160) 
53956

>  <target_id>  (160) 
1

>  <reference_id>  (160) 
63

>  <inspiration_ids>  (160) 
[112, 63]

>  <energy_score>  (160) 
7.668015530527526

>  <distance_score>  (160) 
13.345671520858414

>  <path>  (160) 
/opt/xchem-fragalysis-2/maxwin/BulkDock/SCRATCH/511024/C53956-P63/C53956-P63.minimised.mol

>  <scratch_subdir>  (160) 
/opt/xchem-fragalysis-2/maxwin/BulkDock/SCRATCH/511024/C53956-P63

>  <fragmenstein_runtime>  (160) 
33.108049154281616

>  <fragmenstein_outcome>  (160) 
too moved

>  <fragmenstein_mode>  (160) 
expansion

>  <fragmenstein_error>  (160) 


$$$$
C48739-P112
     RDKit          3D

 43 44  0  0  0  0  0  0  0  0999 V2000
   -9.1104  -14.8639   17.9489 C   0  0  0  0  0  0  0  0  0  0  0  0
   -8.8336  -16.3048   17.5589 C   0  0  0  0  0  0  0  0  0  0  0  0
   -7.6364  -16.4323   16.7522 N   0  0  0  0  0  0  0  0  0  0  0  0
   -7.5716  -16.5252   15.4062 C   0  0  0  0  0  0  0  0  0  0  0  0
   -6.2326  -16.7456   15.1219 C   0  0  0  0  0  0  0  0  0  0  0  0
   -5.4986  -16.5099   16.3498 C   0  0  0  0  0  0  0  0  0  0  0  0
   -4.0036  -16.3572   16.8484 C   0  0  0  0  0  0  0  0  0  0  0  0
   -3.5930  -17.4183   17.2313 O   0  0  0  0  0  0  0  0  0  0  0  0
   -3.2583  -14.8481   16.9195 N   0  0  0  0  0  0  0  0  0  0  0  0
   -1.7430  -14.3475   17.6817 C   0  0  0  0  0  0  0  0  0  0  0  0
   -1.7168  -15.1368   19.1044 C   0  0  0  0  0  0  0  0  0  0  0  0
   -0.0013  -14.2153   17.1306 C   0  0  0  0  0  0  0  0  0  0  0  0
    1.7715  -14.0856   17.5307 N   0  0  0  0  0  0  0  0  0  0  0  0
    2.5784  -14.6731   18.6599 C   0  0  0  0  0  0  0  0  0  0  0  0
    2.2576  -15.4522   19.5288 O   0  0  0  0  0  0  0  0  0  0  0  0
    4.2451  -13.9611   18.7774 C   0  0  0  0  0  0  0  0  0  0  0  0
    3.7307  -13.6776   20.2671 O   0  0  0  0  0  0  0  0  0  0  0  0
    5.5478  -13.0282   19.5550 C   0  0  0  0  0  0  0  0  0  0  0  0
    6.2373  -13.2479   20.7519 C   0  0  0  0  0  0  0  0  0  0  0  0
    7.1463  -12.2314   20.9174 N   0  0  0  0  0  0  0  0  0  0  0  0
    7.0687  -11.4206   19.8371 C   0  0  0  0  0  0  0  0  0  0  0  0
    6.1705  -11.8828   19.0038 N   0  0  0  0  0  0  0  0  0  0  0  0
   -6.4371  -16.4373   17.3423 N   0  0  0  0  0  0  0  0  0  0  0  0
  -10.0238  -14.8012   18.5483 H   0  0  0  0  0  0  0  0  0  0  0  0
   -9.2383  -14.2337   17.0624 H   0  0  0  0  0  0  0  0  0  0  0  0
   -8.2860  -14.4476   18.5376 H   0  0  0  0  0  0  0  0  0  0  0  0
   -8.7022  -16.9323   18.4473 H   0  0  0  0  0  0  0  0  0  0  0  0
   -9.6709  -16.7123   16.9817 H   0  0  0  0  0  0  0  0  0  0  0  0
   -8.4448  -16.4696   14.7737 H   0  0  0  0  0  0  0  0  0  0  0  0
   -5.8585  -16.9338   14.1364 H   0  0  0  0  0  0  0  0  0  0  0  0
   -3.8009  -14.1939   16.4603 H   0  0  0  0  0  0  0  0  0  0  0  0
   -2.0373  -13.2986   17.8523 H   0  0  0  0  0  0  0  0  0  0  0  0
   -2.2563  -16.0353   19.3725 H   0  0  0  0  0  0  0  0  0  0  0  0
   -0.7923  -15.5979   19.1286 H   0  0  0  0  0  0  0  0  0  0  0  0
   -2.0955  -14.4586   19.8998 H   0  0  0  0  0  0  0  0  0  0  0  0
    0.1005  -15.0653   17.7691 H   0  0  0  0  0  0  0  0  0  0  0  0
   -0.1241  -13.2194   17.4527 H   0  0  0  0  0  0  0  0  0  0  0  0
    2.3839  -13.5393   16.9373 H   0  0  0  0  0  0  0  0  0  0  0  0
    4.7565  -14.8855   18.6430 H   0  0  0  0  0  0  0  0  0  0  0  0
    3.3635  -14.5305   20.5603 H   0  0  0  0  0  0  0  0  0  0  0  0
    6.1220  -14.0128   21.5008 H   0  0  0  0  0  0  0  0  0  0  0  0
    7.7692  -12.1180   21.7029 H   0  0  0  0  0  0  0  0  0  0  0  0
    7.6795  -10.5406   19.6919 H   0  0  0  0  0  0  0  0  0  0  0  0
  1  2  1  0
  2  3  1  0
  3  4  1  0
  4  5  2  0
  5  6  1  0
  6  7  1  0
  7  8  2  0
  7  9  1  0
  9 10  1  0
 10 11  1  0
 10 12  1  0
 12 13  1  0
 13 14  1  0
 14 15  2  0
 14 16  1  0
 16 17  1  0
 16 18  1  0
 18 19  2  0
 19 20  1  0
 20 21  1  0
 21 22  2  0
  6 23  2  0
 23  3  1  0
 22 18  1  0
  1 24  1  0
  1 25  1  0
  1 26  1  0
  2 27  1  0
  2 28  1  0
  4 29  1  0
  5 30  1  0
  9 31  1  0
 10 32  1  0
 11 33  1  0
 11 34  1  0
 11 35  1  0
 12 36  1  0
 12 37  1  0
 13 38  1  0
 16 39  1  0
 17 40  1  0
 19 41  1  0
 20 42  1  0
 21 43  1  0
M  END
>  <Energy>  (161) 
491.68820675377344

>  <compound_id>  (161) 
48739

>  <target_id>  (161) 
1

>  <reference_id>  (161) 
112

>  <inspiration_ids>  (161) 
[112, 63]

>  <energy_score>  (161) 
359.42448222111517

>  <distance_score>  (161) 
12.229860392051974

>  <path>  (161) 
/opt/xchem-fragalysis-2/maxwin/BulkDock/SCRATCH/511024/C48739-P112/C48739-P112.minimised.mol

>  <scratch_subdir>  (161) 
/opt/xchem-fragalysis-2/maxwin/BulkDock/SCRATCH/511024/C48739-P112

>  <fragmenstein_runtime>  (161) 
20.812684297561646

>  <fragmenstein_outcome>  (161) 
too moved

>  <fragmenstein_mode>  (161) 
expansion

>  <fragmenstein_error>  (161) 


$$$$
C48739-P63
     RDKit          3D

 43 44  0  0  0  0  0  0  0  0999 V2000
  -11.1393  -24.3547   12.8517 C   0  0  0  0  0  0  0  0  0  0  0  0
  -10.0919  -24.4427   13.9574 C   0  0  0  0  0  0  0  0  0  0  0  0
   -9.3669  -23.2082   14.2407 N   0  0  0  0  0  0  0  0  0  0  0  0
   -8.7841  -22.5042   13.2726 C   0  0  0  0  0  0  0  0  0  0  0  0
   -7.6562  -22.0395   13.9406 C   0  0  0  0  0  0  0  0  0  0  0  0
   -7.6291  -22.3069   15.6455 C   0  0  0  0  0  0  0  0  0  0  0  0
   -6.5545  -21.0613   17.1373 C   0  0  0  0  0  0  0  0  0  0  0  0
   -7.3453  -20.7415   18.0531 O   0  0  0  0  0  0  0  0  0  0  0  0
   -4.6802  -19.9730   17.1941 N   0  0  0  0  0  0  0  0  0  0  0  0
   -3.8539  -18.2268   18.3340 C   0  0  0  0  0  0  0  0  0  0  0  0
   -3.6720  -18.8685   19.7051 C   0  0  0  0  0  0  0  0  0  0  0  0
   -2.5370  -16.2432   18.3755 C   0  0  0  0  0  0  0  0  0  0  0  0
   -1.4141  -14.3153   17.8707 N   0  0  0  0  0  0  0  0  0  0  0  0
    0.4780  -13.9091   16.8494 C   0  0  0  0  0  0  0  0  0  0  0  0
    0.8949  -14.9085   16.4307 O   0  0  0  0  0  0  0  0  0  0  0  0
    1.8976  -12.3317   16.0979 C   0  0  0  0  0  0  0  0  0  0  0  0
    2.8537  -10.9521   16.9788 O   0  0  0  0  0  0  0  0  0  0  0  0
    3.7329  -11.7709   15.2894 C   0  0  0  0  0  0  0  0  0  0  0  0
    4.0715  -10.7763   14.3807 C   0  0  0  0  0  0  0  0  0  0  0  0
    5.2675  -10.8873   13.7656 N   0  0  0  0  0  0  0  0  0  0  0  0
    5.5210  -12.1408   13.7325 C   0  0  0  0  0  0  0  0  0  0  0  0
    4.6724  -12.5340   14.6007 N   0  0  0  0  0  0  0  0  0  0  0  0
   -9.0781  -22.7329   15.4833 N   0  0  0  0  0  0  0  0  0  0  0  0
  -10.6782  -24.1516   11.8797 H   0  0  0  0  0  0  0  0  0  0  0  0
  -11.6713  -25.3079   12.7672 H   0  0  0  0  0  0  0  0  0  0  0  0
  -11.8761  -23.5725   13.0383 H   0  0  0  0  0  0  0  0  0  0  0  0
   -9.3468  -25.1807   13.6429 H   0  0  0  0  0  0  0  0  0  0  0  0
  -10.5305  -24.8479   14.8641 H   0  0  0  0  0  0  0  0  0  0  0  0
   -9.0420  -22.5030   12.2237 H   0  0  0  0  0  0  0  0  0  0  0  0
   -6.9220  -21.4768   13.3783 H   0  0  0  0  0  0  0  0  0  0  0  0
   -4.0906  -20.3395   16.5286 H   0  0  0  0  0  0  0  0  0  0  0  0
   -4.8181  -17.7002   18.3144 H   0  0  0  0  0  0  0  0  0  0  0  0
   -4.6334  -19.2343   20.0801 H   0  0  0  0  0  0  0  0  0  0  0  0
   -3.2665  -18.1583   20.4289 H   0  0  0  0  0  0  0  0  0  0  0  0
   -3.0114  -19.7328   19.6288 H   0  0  0  0  0  0  0  0  0  0  0  0
   -2.6534  -16.0718   19.4554 H   0  0  0  0  0  0  0  0  0  0  0  0
   -3.3479  -16.0868   17.5187 H   0  0  0  0  0  0  0  0  0  0  0  0
   -1.8192  -13.4318   18.1603 H   0  0  0  0  0  0  0  0  0  0  0  0
    2.9803  -12.2049   17.1623 H   0  0  0  0  0  0  0  0  0  0  0  0
    2.3629  -10.5851   17.7188 H   0  0  0  0  0  0  0  0  0  0  0  0
    3.6060   -9.9611   13.9908 H   0  0  0  0  0  0  0  0  0  0  0  0
    6.0383  -10.2984   13.8943 H   0  0  0  0  0  0  0  0  0  0  0  0
    6.3336  -12.7467   13.3600 H   0  0  0  0  0  0  0  0  0  0  0  0
  1  2  1  0
  2  3  1  0
  3  4  1  0
  4  5  2  0
  5  6  1  0
  6  7  1  0
  7  8  2  0
  7  9  1  0
  9 10  1  0
 10 11  1  0
 10 12  1  0
 12 13  1  0
 13 14  1  0
 14 15  2  0
 14 16  1  0
 16 17  1  0
 16 18  1  0
 18 19  2  0
 19 20  1  0
 20 21  1  0
 21 22  2  0
  6 23  2  0
 23  3  1  0
 22 18  1  0
  1 24  1  0
  1 25  1  0
  1 26  1  0
  2 27  1  0
  2 28  1  0
  4 29  1  0
  5 30  1  0
  9 31  1  0
 10 32  1  0
 11 33  1  0
 11 34  1  0
 11 35  1  0
 12 36  1  0
 12 37  1  0
 13 38  1  0
 16 39  1  0
 17 40  1  0
 19 41  1  0
 20 42  1  0
 21 43  1  0
M  END
>  <Energy>  (162) 
2444.9643391124664

>  <compound_id>  (162) 
48739

>  <target_id>  (162) 
1

>  <reference_id>  (162) 
63

>  <inspiration_ids>  (162) 
[112, 63]

>  <energy_score>  (162) 
2312.7006145798405

>  <distance_score>  (162) 
9.900833302629733

>  <path>  (162) 
/opt/xchem-fragalysis-2/maxwin/BulkDock/SCRATCH/511024/C48739-P63/C48739-P63.minimised.mol

>  <scratch_subdir>  (162) 
/opt/xchem-fragalysis-2/maxwin/BulkDock/SCRATCH/511024/C48739-P63

>  <fragmenstein_runtime>  (162) 
21.025994300842285

>  <fragmenstein_outcome>  (162) 
too moved

>  <fragmenstein_mode>  (162) 
expansion

>  <fragmenstein_error>  (162) 


$$$$
C48741-P112
     RDKit          3D

 46 47  0  0  0  0  0  0  0  0999 V2000
   -6.5394  -20.3678   12.2148 C   0  0  0  0  0  0  0  0  0  0  0  0
   -5.6376  -19.1580   12.6006 C   0  0  0  0  0  0  0  0  0  0  0  0
   -5.5525  -17.7749   13.8326 C   0  0  0  0  0  0  0  0  0  0  0  0
   -6.7560  -17.1493   13.7455 C   0  0  0  0  0  0  0  0  0  0  0  0
   -5.8263  -16.2693   13.6889 N   0  0  0  0  0  0  0  0  0  0  0  0
   -5.3817  -16.3186   14.9525 N   0  0  0  0  0  0  0  0  0  0  0  0
   -4.1389  -16.5965   14.7026 C   0  0  0  0  0  0  0  0  0  0  0  0
   -3.2804  -15.7552   16.3080 C   0  0  0  0  0  0  0  0  0  0  0  0
   -3.3893  -16.5391   17.2835 O   0  0  0  0  0  0  0  0  0  0  0  0
   -2.1071  -14.1748   16.8397 N   0  0  0  0  0  0  0  0  0  0  0  0
   -2.6786  -13.1142   17.3728 C   0  0  0  0  0  0  0  0  0  0  0  0
   -2.4637  -12.5370   18.6984 C   0  0  0  0  0  0  0  0  0  0  0  0
   -0.0698  -13.8735   16.7151 C   0  0  0  0  0  0  0  0  0  0  0  0
    1.5926  -12.6853   15.8907 C   0  0  0  0  0  0  0  0  0  0  0  0
    2.8642  -11.3641   16.8625 N   0  0  0  0  0  0  0  0  0  0  0  0
    2.5344   -9.6964   17.6781 C   0  0  0  0  0  0  0  0  0  0  0  0
    1.4344   -9.1301   17.6396 O   0  0  0  0  0  0  0  0  0  0  0  0
    3.6352   -8.6966   18.5232 C   0  0  0  0  0  0  0  0  0  0  0  0
    3.1203   -7.3063   18.1430 O   0  0  0  0  0  0  0  0  0  0  0  0
    5.1127   -8.5366   18.9814 C   0  0  0  0  0  0  0  0  0  0  0  0
    5.5970   -7.4568   19.6873 C   0  0  0  0  0  0  0  0  0  0  0  0
    6.7716   -7.8947   20.2109 N   0  0  0  0  0  0  0  0  0  0  0  0
    7.0789   -9.1073   19.7163 C   0  0  0  0  0  0  0  0  0  0  0  0
    6.1003   -9.5163   18.9643 N   0  0  0  0  0  0  0  0  0  0  0  0
   -6.8286  -21.0987   12.9701 H   0  0  0  0  0  0  0  0  0  0  0  0
   -5.9586  -20.9315   11.4769 H   0  0  0  0  0  0  0  0  0  0  0  0
   -7.4592  -20.0648   11.7085 H   0  0  0  0  0  0  0  0  0  0  0  0
   -6.1572  -18.5103   11.9022 H   0  0  0  0  0  0  0  0  0  0  0  0
   -4.6249  -19.5416   12.4605 H   0  0  0  0  0  0  0  0  0  0  0  0
   -7.7986  -17.2848   13.4777 H   0  0  0  0  0  0  0  0  0  0  0  0
   -5.6093  -15.4679   13.0922 H   0  0  0  0  0  0  0  0  0  0  0  0
   -3.5507  -13.7066   17.2171 H   0  0  0  0  0  0  0  0  0  0  0  0
   -2.5735  -12.1472   17.0324 H   0  0  0  0  0  0  0  0  0  0  0  0
   -1.5837  -11.8808   18.6542 H   0  0  0  0  0  0  0  0  0  0  0  0
   -3.3301  -11.8699   18.8677 H   0  0  0  0  0  0  0  0  0  0  0  0
   -2.4044  -13.2580   19.5157 H   0  0  0  0  0  0  0  0  0  0  0  0
   -0.3088  -13.0995   17.4227 H   0  0  0  0  0  0  0  0  0  0  0  0
    0.3723  -14.4738   17.4912 H   0  0  0  0  0  0  0  0  0  0  0  0
    1.3965  -12.1347   14.9048 H   0  0  0  0  0  0  0  0  0  0  0  0
    2.1837  -12.8311   15.0139 H   0  0  0  0  0  0  0  0  0  0  0  0
    3.7869  -11.6640   17.0918 H   0  0  0  0  0  0  0  0  0  0  0  0
    3.0918   -8.6253   19.4767 H   0  0  0  0  0  0  0  0  0  0  0  0
    2.1719   -7.4747   17.9531 H   0  0  0  0  0  0  0  0  0  0  0  0
    5.1664   -6.4959   19.9323 H   0  0  0  0  0  0  0  0  0  0  0  0
    7.4103   -7.3338   20.7449 H   0  0  0  0  0  0  0  0  0  0  0  0
    8.0057   -9.6278   19.9137 H   0  0  0  0  0  0  0  0  0  0  0  0
  1  2  1  0
  2  3  1  0
  3  4  2  0
  4  5  1  0
  5  6  1  0
  6  7  2  0
  7  8  1  0
  8  9  2  0
  8 10  1  0
 10 11  1  0
 11 12  1  0
 10 13  1  0
 13 14  1  0
 14 15  1  0
 15 16  1  0
 16 17  2  0
 16 18  1  0
 18 19  1  0
 18 20  1  0
 20 21  2  0
 21 22  1  0
 22 23  1  0
 23 24  2  0
  7  3  1  0
 24 20  1  0
  1 25  1  0
  1 26  1  0
  1 27  1  0
  2 28  1  0
  2 29  1  0
  4 30  1  0
  5 31  1  0
 11 32  1  0
 11 33  1  0
 12 34  1  0
 12 35  1  0
 12 36  1  0
 13 37  1  0
 13 38  1  0
 14 39  1  0
 14 40  1  0
 15 41  1  0
 18 42  1  0
 19 43  1  0
 21 44  1  0
 22 45  1  0
 23 46  1  0
M  END
>  <Energy>  (163) 
1338.1015651705095

>  <compound_id>  (163) 
48741

>  <target_id>  (163) 
1

>  <reference_id>  (163) 
112

>  <inspiration_ids>  (163) 
[112, 63]

>  <energy_score>  (163) 
1187.2527784453532

>  <distance_score>  (163) 
11.05823971217129

>  <path>  (163) 
/opt/xchem-fragalysis-2/maxwin/BulkDock/SCRATCH/511024/C48741-P112/C48741-P112.minimised.mol

>  <scratch_subdir>  (163) 
/opt/xchem-fragalysis-2/maxwin/BulkDock/SCRATCH/511024/C48741-P112

>  <fragmenstein_runtime>  (163) 
19.18422269821167

>  <fragmenstein_outcome>  (163) 
too moved

>  <fragmenstein_mode>  (163) 
expansion

>  <fragmenstein_error>  (163) 


$$$$
C48741-P63
     RDKit          3D

 46 47  0  0  0  0  0  0  0  0999 V2000
   -8.5478  -20.0124   11.7311 C   0  0  0  0  0  0  0  0  0  0  0  0
   -7.0219  -19.6521   12.2190 C   0  0  0  0  0  0  0  0  0  0  0  0
   -5.9745  -18.4937   13.5212 C   0  0  0  0  0  0  0  0  0  0  0  0
   -5.0839  -19.1614   12.7723 C   0  0  0  0  0  0  0  0  0  0  0  0
   -6.1764  -17.7573   12.5843 N   0  0  0  0  0  0  0  0  0  0  0  0
   -6.0023  -16.5925   13.5153 N   0  0  0  0  0  0  0  0  0  0  0  0
   -4.9839  -16.9683   14.2526 C   0  0  0  0  0  0  0  0  0  0  0  0
   -3.5642  -15.8636   14.3052 C   0  0  0  0  0  0  0  0  0  0  0  0
   -3.6950  -14.8842   13.1100 O   0  0  0  0  0  0  0  0  0  0  0  0
   -1.9761  -15.3639   15.3336 N   0  0  0  0  0  0  0  0  0  0  0  0
   -2.3588  -14.5221   16.2854 C   0  0  0  0  0  0  0  0  0  0  0  0
   -3.6857  -15.8289   16.8233 C   0  0  0  0  0  0  0  0  0  0  0  0
   -1.3939  -14.0535   16.9751 C   0  0  0  0  0  0  0  0  0  0  0  0
    0.8360  -13.6097   17.3861 C   0  0  0  0  0  0  0  0  0  0  0  0
    2.6688  -12.3791   17.7613 N   0  0  0  0  0  0  0  0  0  0  0  0
    2.9035  -10.4111   17.7859 C   0  0  0  0  0  0  0  0  0  0  0  0
    1.9624   -9.6414   17.6682 O   0  0  0  0  0  0  0  0  0  0  0  0
    4.6010   -9.3156   18.1876 C   0  0  0  0  0  0  0  0  0  0  0  0
    5.8729   -9.7664   18.7793 O   0  0  0  0  0  0  0  0  0  0  0  0
    4.8073   -7.6850   18.7793 C   0  0  0  0  0  0  0  0  0  0  0  0
    5.4667   -6.5971   18.2379 C   0  0  0  0  0  0  0  0  0  0  0  0
    5.8004   -5.8088   19.3120 N   0  0  0  0  0  0  0  0  0  0  0  0
    5.3088   -6.3690   20.4414 C   0  0  0  0  0  0  0  0  0  0  0  0
    4.7648   -7.5249   20.1783 N   0  0  0  0  0  0  0  0  0  0  0  0
   -8.6213  -20.0473   10.6450 H   0  0  0  0  0  0  0  0  0  0  0  0
   -9.3550  -19.3643   12.0776 H   0  0  0  0  0  0  0  0  0  0  0  0
   -8.7900  -21.0684   11.9369 H   0  0  0  0  0  0  0  0  0  0  0  0
   -6.7835  -20.6299   12.6760 H   0  0  0  0  0  0  0  0  0  0  0  0
   -6.7057  -19.4262   11.2517 H   0  0  0  0  0  0  0  0  0  0  0  0
   -4.9818  -19.9707   12.0528 H   0  0  0  0  0  0  0  0  0  0  0  0
   -6.5544  -17.5583   11.6676 H   0  0  0  0  0  0  0  0  0  0  0  0
   -1.7358  -14.2968   15.3750 H   0  0  0  0  0  0  0  0  0  0  0  0
   -3.2537  -13.9630   16.1429 H   0  0  0  0  0  0  0  0  0  0  0  0
   -3.5113  -16.4336   17.7417 H   0  0  0  0  0  0  0  0  0  0  0  0
   -4.6655  -15.4965   17.1905 H   0  0  0  0  0  0  0  0  0  0  0  0
   -3.9043  -16.6377   16.1514 H   0  0  0  0  0  0  0  0  0  0  0  0
   -1.8124  -12.9956   17.1497 H   0  0  0  0  0  0  0  0  0  0  0  0
   -1.6963  -14.4909   18.0299 H   0  0  0  0  0  0  0  0  0  0  0  0
    1.2740  -14.3597   18.0034 H   0  0  0  0  0  0  0  0  0  0  0  0
    1.2298  -14.0864   16.5185 H   0  0  0  0  0  0  0  0  0  0  0  0
    3.5747  -12.8262   17.7891 H   0  0  0  0  0  0  0  0  0  0  0  0
    3.7950   -8.8929   18.8732 H   0  0  0  0  0  0  0  0  0  0  0  0
    5.8698   -9.4171   19.6877 H   0  0  0  0  0  0  0  0  0  0  0  0
    5.8140   -6.3761   17.2421 H   0  0  0  0  0  0  0  0  0  0  0  0
    6.3811   -4.9836   19.3318 H   0  0  0  0  0  0  0  0  0  0  0  0
    5.4245   -5.9169   21.4166 H   0  0  0  0  0  0  0  0  0  0  0  0
  1  2  1  0
  2  3  1  0
  3  4  2  0
  4  5  1  0
  5  6  1  0
  6  7  2  0
  7  8  1  0
  8  9  2  0
  8 10  1  0
 10 11  1  0
 11 12  1  0
 10 13  1  0
 13 14  1  0
 14 15  1  0
 15 16  1  0
 16 17  2  0
 16 18  1  0
 18 19  1  0
 18 20  1  0
 20 21  2  0
 21 22  1  0
 22 23  1  0
 23 24  2  0
  7  3  1  0
 24 20  1  0
  1 25  1  0
  1 26  1  0
  1 27  1  0
  2 28  1  0
  2 29  1  0
  4 30  1  0
  5 31  1  0
 11 32  1  0
 11 33  1  0
 12 34  1  0
 12 35  1  0
 12 36  1  0
 13 37  1  0
 13 38  1  0
 14 39  1  0
 14 40  1  0
 15 41  1  0
 18 42  1  0
 19 43  1  0
 21 44  1  0
 22 45  1  0
 23 46  1  0
M  END
>  <Energy>  (164) 
2346.6193073669319

>  <compound_id>  (164) 
48741

>  <target_id>  (164) 
1

>  <reference_id>  (164) 
63

>  <inspiration_ids>  (164) 
[112, 63]

>  <energy_score>  (164) 
2195.7705206418045

>  <distance_score>  (164) 
10.363085165071679

>  <path>  (164) 
/opt/xchem-fragalysis-2/maxwin/BulkDock/SCRATCH/511024/C48741-P63/C48741-P63.minimised.mol

>  <scratch_subdir>  (164) 
/opt/xchem-fragalysis-2/maxwin/BulkDock/SCRATCH/511024/C48741-P63

>  <fragmenstein_runtime>  (164) 
16.62830924987793

>  <fragmenstein_outcome>  (164) 
too moved

>  <fragmenstein_mode>  (164) 
expansion

>  <fragmenstein_error>  (164) 


$$$$
C48742-P112
     RDKit          3D

 37 39  0  0  0  0  0  0  0  0999 V2000
   -0.2701  -15.1347   17.8942 O   0  0  0  0  0  0  0  0  0  0  0  0
   -0.5148  -14.1929   17.1937 C   0  0  0  0  0  0  0  0  0  0  0  0
    1.1514  -13.4527   16.5009 C   0  0  0  0  0  0  0  0  0  0  0  0
    1.8434  -12.2463   15.4241 C   0  0  0  0  0  0  0  0  0  0  0  0
    2.9824  -11.1339   15.4711 C   0  0  0  0  0  0  0  0  0  0  0  0
    3.8703  -10.7214   16.4544 C   0  0  0  0  0  0  0  0  0  0  0  0
    4.6456   -9.7418   15.8813 N   0  0  0  0  0  0  0  0  0  0  0  0
    4.1834   -9.5420   14.6150 C   0  0  0  0  0  0  0  0  0  0  0  0
    3.1785  -10.3476   14.3441 N   0  0  0  0  0  0  0  0  0  0  0  0
   -2.0276  -13.6820   16.7391 N   0  0  0  0  0  0  0  0  0  0  0  0
   -3.6397  -14.3892   16.9937 C   0  0  0  0  0  0  0  0  0  0  0  0
   -5.3539  -13.5638   17.3870 C   0  0  0  0  0  0  0  0  0  0  0  0
   -6.4642  -14.3475   17.4277 N   0  0  0  0  0  0  0  0  0  0  0  0
   -6.0453  -15.7356   17.3374 N   0  0  0  0  0  0  0  0  0  0  0  0
   -6.9143  -16.5325   18.2826 C   0  0  0  0  0  0  0  0  0  0  0  0
   -8.3030  -16.9245   17.7093 C   0  0  0  0  0  0  0  0  0  0  0  0
   -8.6682  -18.2650   18.3380 C   0  0  0  0  0  0  0  0  0  0  0  0
   -7.7149  -18.4527   19.5062 C   0  0  0  0  0  0  0  0  0  0  0  0
   -6.4236  -17.7304   19.1183 C   0  0  0  0  0  0  0  0  0  0  0  0
   -4.3321  -15.8851   17.0086 C   0  0  0  0  0  0  0  0  0  0  0  0
    1.7788  -13.8789   17.3137 H   0  0  0  0  0  0  0  0  0  0  0  0
    1.4382  -11.9669   14.4329 H   0  0  0  0  0  0  0  0  0  0  0  0
    4.0450  -11.0663   17.4627 H   0  0  0  0  0  0  0  0  0  0  0  0
    5.4359   -9.2691   16.2963 H   0  0  0  0  0  0  0  0  0  0  0  0
    4.6186   -8.8155   13.9409 H   0  0  0  0  0  0  0  0  0  0  0  0
   -1.9452  -12.8640   16.2536 H   0  0  0  0  0  0  0  0  0  0  0  0
   -5.4618  -12.5010   17.6184 H   0  0  0  0  0  0  0  0  0  0  0  0
   -7.1486  -15.7853   19.0615 H   0  0  0  0  0  0  0  0  0  0  0  0
   -9.0388  -16.1654   18.0047 H   0  0  0  0  0  0  0  0  0  0  0  0
   -8.3472  -16.9687   16.6198 H   0  0  0  0  0  0  0  0  0  0  0  0
   -8.5551  -19.0763   17.6163 H   0  0  0  0  0  0  0  0  0  0  0  0
   -9.7025  -18.2677   18.6888 H   0  0  0  0  0  0  0  0  0  0  0  0
   -7.5432  -19.5089   19.7347 H   0  0  0  0  0  0  0  0  0  0  0  0
   -8.1372  -17.9843   20.4037 H   0  0  0  0  0  0  0  0  0  0  0  0
   -5.7389  -18.4140   18.6160 H   0  0  0  0  0  0  0  0  0  0  0  0
   -5.8884  -17.3866   20.0113 H   0  0  0  0  0  0  0  0  0  0  0  0
   -3.9563  -16.8956   17.0307 H   0  0  0  0  0  0  0  0  0  0  0  0
  1  2  2  0
  2  3  1  0
  3  4  2  3
  4  5  1  0
  5  6  2  0
  6  7  1  0
  7  8  1  0
  8  9  2  0
  2 10  1  0
 10 11  1  0
 11 12  1  0
 12 13  2  0
 13 14  1  0
 14 15  1  0
 15 16  1  0
 16 17  1  0
 17 18  1  0
 18 19  1  0
 14 20  1  0
  9  5  1  0
 20 11  2  0
 19 15  1  0
  3 21  1  0
  4 22  1  0
  6 23  1  0
  7 24  1  0
  8 25  1  0
 10 26  1  0
 12 27  1  0
 15 28  1  0
 16 29  1  0
 16 30  1  0
 17 31  1  0
 17 32  1  0
 18 33  1  0
 18 34  1  0
 19 35  1  0
 19 36  1  0
 20 37  1  0
M  END
>  <Energy>  (165) 
407.31780022770988

>  <compound_id>  (165) 
48742

>  <target_id>  (165) 
1

>  <reference_id>  (165) 
112

>  <inspiration_ids>  (165) 
[112, 63]

>  <energy_score>  (165) 
369.6939276063908

>  <distance_score>  (165) 
12.461042499436484

>  <path>  (165) 
/opt/xchem-fragalysis-2/maxwin/BulkDock/SCRATCH/511024/C48742-P112/C48742-P112.minimised.mol

>  <scratch_subdir>  (165) 
/opt/xchem-fragalysis-2/maxwin/BulkDock/SCRATCH/511024/C48742-P112

>  <fragmenstein_runtime>  (165) 
14.941969156265259

>  <fragmenstein_outcome>  (165) 
too moved

>  <fragmenstein_mode>  (165) 
expansion

>  <fragmenstein_error>  (165) 


$$$$
C48742-P63
     RDKit          3D

 37 39  0  0  0  0  0  0  0  0999 V2000
    0.2855  -19.1877   11.6988 O   0  0  0  0  0  0  0  0  0  0  0  0
   -0.0250  -19.5591   12.8297 C   0  0  0  0  0  0  0  0  0  0  0  0
    1.3693  -19.7081   13.7809 C   0  0  0  0  0  0  0  0  0  0  0  0
    2.7250  -19.4168   13.7179 C   0  0  0  0  0  0  0  0  0  0  0  0
    3.6996  -18.6096   12.9905 C   0  0  0  0  0  0  0  0  0  0  0  0
    4.8648  -18.1023   13.5628 C   0  0  0  0  0  0  0  0  0  0  0  0
    5.5323  -17.4499   12.5621 N   0  0  0  0  0  0  0  0  0  0  0  0
    4.8092  -17.6399   11.4236 C   0  0  0  0  0  0  0  0  0  0  0  0
    3.6864  -18.2877   11.6611 N   0  0  0  0  0  0  0  0  0  0  0  0
   -1.7085  -20.0546   13.4388 N   0  0  0  0  0  0  0  0  0  0  0  0
   -3.3861  -20.2618   12.4863 C   0  0  0  0  0  0  0  0  0  0  0  0
   -4.1650  -21.2162   12.8806 C   0  0  0  0  0  0  0  0  0  0  0  0
   -3.9883  -22.3856   12.2008 N   0  0  0  0  0  0  0  0  0  0  0  0
   -4.1093  -21.9939   10.9884 N   0  0  0  0  0  0  0  0  0  0  0  0
   -3.9318  -23.0193    9.9633 C   0  0  0  0  0  0  0  0  0  0  0  0
   -4.1683  -22.6977    8.4915 C   0  0  0  0  0  0  0  0  0  0  0  0
   -4.7968  -23.9423    7.8589 C   0  0  0  0  0  0  0  0  0  0  0  0
   -4.9390  -25.0024    8.9434 C   0  0  0  0  0  0  0  0  0  0  0  0
   -4.7022  -24.3201   10.2773 C   0  0  0  0  0  0  0  0  0  0  0  0
   -3.9440  -20.5126   11.1416 C   0  0  0  0  0  0  0  0  0  0  0  0
    1.2760  -20.5282   14.4803 H   0  0  0  0  0  0  0  0  0  0  0  0
    3.2393  -19.9018   14.5497 H   0  0  0  0  0  0  0  0  0  0  0  0
    5.2453  -18.1485   14.5680 H   0  0  0  0  0  0  0  0  0  0  0  0
    6.4253  -16.9834   12.6250 H   0  0  0  0  0  0  0  0  0  0  0  0
    5.1266  -17.2785   10.4549 H   0  0  0  0  0  0  0  0  0  0  0  0
   -1.6816  -20.2146   14.3473 H   0  0  0  0  0  0  0  0  0  0  0  0
   -3.8887  -21.2488   13.8927 H   0  0  0  0  0  0  0  0  0  0  0  0
   -2.8694  -23.3007   10.0412 H   0  0  0  0  0  0  0  0  0  0  0  0
   -4.7583  -21.7992    8.3073 H   0  0  0  0  0  0  0  0  0  0  0  0
   -3.2038  -22.4938    8.0079 H   0  0  0  0  0  0  0  0  0  0  0  0
   -4.1615  -24.3176    7.0476 H   0  0  0  0  0  0  0  0  0  0  0  0
   -5.7589  -23.7125    7.3934 H   0  0  0  0  0  0  0  0  0  0  0  0
   -4.1797  -25.7790    8.7905 H   0  0  0  0  0  0  0  0  0  0  0  0
   -5.9134  -25.4995    8.9050 H   0  0  0  0  0  0  0  0  0  0  0  0
   -4.1049  -24.9701   10.9299 H   0  0  0  0  0  0  0  0  0  0  0  0
   -5.6317  -24.1560   10.8256 H   0  0  0  0  0  0  0  0  0  0  0  0
   -3.8382  -20.0441   10.1607 H   0  0  0  0  0  0  0  0  0  0  0  0
  1  2  2  0
  2  3  1  0
  3  4  2  3
  4  5  1  0
  5  6  2  0
  6  7  1  0
  7  8  1  0
  8  9  2  0
  2 10  1  0
 10 11  1  0
 11 12  1  0
 12 13  2  0
 13 14  1  0
 14 15  1  0
 15 16  1  0
 16 17  1  0
 17 18  1  0
 18 19  1  0
 14 20  1  0
  9  5  1  0
 20 11  2  0
 19 15  1  0
  3 21  1  0
  4 22  1  0
  6 23  1  0
  7 24  1  0
  8 25  1  0
 10 26  1  0
 12 27  1  0
 15 28  1  0
 16 29  1  0
 16 30  1  0
 17 31  1  0
 17 32  1  0
 18 33  1  0
 18 34  1  0
 19 35  1  0
 19 36  1  0
 20 37  1  0
M  END
>  <Energy>  (166) 
330.0914343083254

>  <compound_id>  (166) 
48742

>  <target_id>  (166) 
1

>  <reference_id>  (166) 
63

>  <inspiration_ids>  (166) 
[112, 63]

>  <energy_score>  (166) 
292.4675616870147

>  <distance_score>  (166) 
13.940197046980655

>  <path>  (166) 
/opt/xchem-fragalysis-2/maxwin/BulkDock/SCRATCH/511024/C48742-P63/C48742-P63.minimised.mol

>  <scratch_subdir>  (166) 
/opt/xchem-fragalysis-2/maxwin/BulkDock/SCRATCH/511024/C48742-P63

>  <fragmenstein_runtime>  (166) 
12.4634268283844

>  <fragmenstein_outcome>  (166) 
too moved

>  <fragmenstein_mode>  (166) 
expansion

>  <fragmenstein_error>  (166) 


$$$$
C17986-P112
     RDKit          3D

 42 44  0  0  0  0  0  0  0  0999 V2000
   -0.2671  -11.7084   12.1326 C   0  0  0  0  0  0  0  0  0  0  0  0
    0.1764  -12.9487   12.8836 C   0  0  0  0  0  0  0  0  0  0  0  0
    0.6525  -13.7406   11.7601 C   0  0  0  0  0  0  0  0  0  0  0  0
   -0.7976  -14.1456   13.5532 N   0  0  0  0  0  0  0  0  0  0  0  0
   -1.5084  -15.3476   12.9048 C   0  0  0  0  0  0  0  0  0  0  0  0
   -1.5982  -15.6672   11.7483 O   0  0  0  0  0  0  0  0  0  0  0  0
   -2.2929  -16.1914   13.8646 C   0  0  0  0  0  0  0  0  0  0  0  0
   -2.0739  -16.4252   15.2165 C   0  0  0  0  0  0  0  0  0  0  0  0
   -3.0848  -17.2982   15.6538 C   0  0  0  0  0  0  0  0  0  0  0  0
   -3.9340  -17.6073   14.6841 N   0  0  0  0  0  0  0  0  0  0  0  0
   -3.4320  -16.9888   13.5814 N   0  0  0  0  0  0  0  0  0  0  0  0
   -4.1400  -17.2554   12.3273 C   0  0  0  0  0  0  0  0  0  0  0  0
   -5.6676  -17.0132   12.3693 C   0  0  0  0  0  0  0  0  0  0  0  0
   -6.2418  -17.9790   11.3372 C   0  0  0  0  0  0  0  0  0  0  0  0
   -5.4020  -19.2269   11.5261 C   0  0  0  0  0  0  0  0  0  0  0  0
   -4.0003  -18.7192   11.8574 C   0  0  0  0  0  0  0  0  0  0  0  0
    1.3692  -12.1198   13.8605 C   0  0  0  0  0  0  0  0  0  0  0  0
    2.0875  -12.4525   14.9939 N   0  0  0  0  0  0  0  0  0  0  0  0
    3.6410  -11.4005   15.3461 C   0  0  0  0  0  0  0  0  0  0  0  0
    3.7562  -10.5099   14.2567 C   0  0  0  0  0  0  0  0  0  0  0  0
    2.2430  -10.8208   13.3811 N   0  0  0  0  0  0  0  0  0  0  0  0
    0.5533  -11.0573   11.8260 H   0  0  0  0  0  0  0  0  0  0  0  0
   -0.5061  -11.9111   11.1390 H   0  0  0  0  0  0  0  0  0  0  0  0
   -0.9655  -11.0682   12.6298 H   0  0  0  0  0  0  0  0  0  0  0  0
    1.2431  -13.0848   11.1501 H   0  0  0  0  0  0  0  0  0  0  0  0
    1.1577  -14.6756   11.8617 H   0  0  0  0  0  0  0  0  0  0  0  0
   -0.2582  -14.0321   11.2510 H   0  0  0  0  0  0  0  0  0  0  0  0
   -0.8497  -14.2279   14.5647 H   0  0  0  0  0  0  0  0  0  0  0  0
   -1.2634  -16.0284   15.8144 H   0  0  0  0  0  0  0  0  0  0  0  0
   -3.2368  -17.7099   16.6435 H   0  0  0  0  0  0  0  0  0  0  0  0
   -3.7204  -16.5955   11.5637 H   0  0  0  0  0  0  0  0  0  0  0  0
   -5.9110  -15.9732   12.1270 H   0  0  0  0  0  0  0  0  0  0  0  0
   -6.0862  -17.2163   13.3592 H   0  0  0  0  0  0  0  0  0  0  0  0
   -6.0938  -17.5766   10.3279 H   0  0  0  0  0  0  0  0  0  0  0  0
   -7.3109  -18.1607   11.4742 H   0  0  0  0  0  0  0  0  0  0  0  0
   -5.7865  -19.8389   12.3436 H   0  0  0  0  0  0  0  0  0  0  0  0
   -5.3775  -19.8547   10.6368 H   0  0  0  0  0  0  0  0  0  0  0  0
   -3.5100  -19.3718   12.5872 H   0  0  0  0  0  0  0  0  0  0  0  0
   -3.3777  -18.7424   10.9542 H   0  0  0  0  0  0  0  0  0  0  0  0
    3.8743  -11.4869   16.3825 H   0  0  0  0  0  0  0  0  0  0  0  0
    4.3385   -9.7449   13.7789 H   0  0  0  0  0  0  0  0  0  0  0  0
    2.1740  -10.3785   12.4684 H   0  0  0  0  0  0  0  0  0  0  0  0
  1  2  1  0
  2  3  1  0
  2  4  1  0
  4  5  1  0
  5  6  2  0
  5  7  1  0
  7  8  2  0
  8  9  1  0
  9 10  2  0
 10 11  1  0
 11 12  1  0
 12 13  1  0
 13 14  1  0
 14 15  1  0
 15 16  1  0
  2 17  1  0
 17 18  2  0
 18 19  1  0
 19 20  2  0
 20 21  1  0
 11  7  1  0
 16 12  1  0
 21 17  1  0
  1 22  1  0
  1 23  1  0
  1 24  1  0
  3 25  1  0
  3 26  1  0
  3 27  1  0
  4 28  1  0
  8 29  1  0
  9 30  1  0
 12 31  1  0
 13 32  1  0
 13 33  1  0
 14 34  1  0
 14 35  1  0
 15 36  1  0
 15 37  1  0
 16 38  1  0
 16 39  1  0
 19 40  1  0
 20 41  1  0
 21 42  1  0
M  END
>  <Energy>  (167) 
216.23321320231901

>  <compound_id>  (167) 
17986

>  <target_id>  (167) 
1

>  <reference_id>  (167) 
112

>  <inspiration_ids>  (167) 
[112, 63]

>  <energy_score>  (167) 
202.20891931085688

>  <distance_score>  (167) 
12.589933185934123

>  <path>  (167) 
/opt/xchem-fragalysis-2/maxwin/BulkDock/SCRATCH/511024/C17986-P112/C17986-P112.minimised.mol

>  <scratch_subdir>  (167) 
/opt/xchem-fragalysis-2/maxwin/BulkDock/SCRATCH/511024/C17986-P112

>  <fragmenstein_runtime>  (167) 
26.112489223480225

>  <fragmenstein_outcome>  (167) 
too moved

>  <fragmenstein_mode>  (167) 
expansion

>  <fragmenstein_error>  (167) 


$$$$
C17986-P63
     RDKit          3D

 42 44  0  0  0  0  0  0  0  0999 V2000
   -6.1116  -10.0425   16.0477 C   0  0  0  0  0  0  0  0  0  0  0  0
   -5.7911  -10.9593   17.2437 C   0  0  0  0  0  0  0  0  0  0  0  0
   -6.6779  -10.5400   18.4351 C   0  0  0  0  0  0  0  0  0  0  0  0
   -6.1177  -12.3554   16.8395 N   0  0  0  0  0  0  0  0  0  0  0  0
   -7.3956  -13.0300   16.6992 C   0  0  0  0  0  0  0  0  0  0  0  0
   -8.5022  -12.6573   16.9500 O   0  0  0  0  0  0  0  0  0  0  0  0
   -7.3054  -14.3684   16.0456 C   0  0  0  0  0  0  0  0  0  0  0  0
   -6.2776  -14.9715   15.3275 C   0  0  0  0  0  0  0  0  0  0  0  0
   -6.8150  -16.1380   14.7595 C   0  0  0  0  0  0  0  0  0  0  0  0
   -8.0694  -16.3456   15.1345 N   0  0  0  0  0  0  0  0  0  0  0  0
   -8.3600  -15.2940   15.9331 N   0  0  0  0  0  0  0  0  0  0  0  0
   -9.7120  -15.2220   16.4775 C   0  0  0  0  0  0  0  0  0  0  0  0
  -10.3365  -16.5698   16.9131 C   0  0  0  0  0  0  0  0  0  0  0  0
  -11.5413  -16.7726   16.0055 C   0  0  0  0  0  0  0  0  0  0  0  0
  -12.0115  -15.3602   15.7276 C   0  0  0  0  0  0  0  0  0  0  0  0
  -10.7070  -14.6299   15.4660 C   0  0  0  0  0  0  0  0  0  0  0  0
   -4.3257  -10.7433   17.6688 C   0  0  0  0  0  0  0  0  0  0  0  0
   -3.5840   -9.6631   17.4628 N   0  0  0  0  0  0  0  0  0  0  0  0
   -2.5063   -9.7633   18.3061 C   0  0  0  0  0  0  0  0  0  0  0  0
   -2.5428  -10.9568   18.9749 C   0  0  0  0  0  0  0  0  0  0  0  0
   -3.6625  -11.5914   18.5244 N   0  0  0  0  0  0  0  0  0  0  0  0
   -5.9451   -8.9861   16.2888 H   0  0  0  0  0  0  0  0  0  0  0  0
   -7.1557  -10.1502   15.7314 H   0  0  0  0  0  0  0  0  0  0  0  0
   -5.4834  -10.2873   15.1830 H   0  0  0  0  0  0  0  0  0  0  0  0
   -7.7401  -10.5299   18.1692 H   0  0  0  0  0  0  0  0  0  0  0  0
   -6.4227   -9.5338   18.7892 H   0  0  0  0  0  0  0  0  0  0  0  0
   -6.5572  -11.2287   19.2799 H   0  0  0  0  0  0  0  0  0  0  0  0
   -5.3940  -12.9386   16.4530 H   0  0  0  0  0  0  0  0  0  0  0  0
   -5.2866  -14.5859   15.1428 H   0  0  0  0  0  0  0  0  0  0  0  0
   -6.3411  -16.8385   14.0829 H   0  0  0  0  0  0  0  0  0  0  0  0
   -9.6619  -14.6039   17.3791 H   0  0  0  0  0  0  0  0  0  0  0  0
  -10.6869  -16.4773   17.9495 H   0  0  0  0  0  0  0  0  0  0  0  0
   -9.6465  -17.4131   16.8917 H   0  0  0  0  0  0  0  0  0  0  0  0
  -11.2164  -17.2597   15.0805 H   0  0  0  0  0  0  0  0  0  0  0  0
  -12.3283  -17.3661   16.4747 H   0  0  0  0  0  0  0  0  0  0  0  0
  -12.7011  -15.2827   14.8856 H   0  0  0  0  0  0  0  0  0  0  0  0
  -12.5099  -14.9428   16.6108 H   0  0  0  0  0  0  0  0  0  0  0  0
  -10.3835  -14.8074   14.4325 H   0  0  0  0  0  0  0  0  0  0  0  0
  -10.8179  -13.5479   15.5906 H   0  0  0  0  0  0  0  0  0  0  0  0
   -1.7610   -8.9865   18.3841 H   0  0  0  0  0  0  0  0  0  0  0  0
   -1.8998  -11.3951   19.7233 H   0  0  0  0  0  0  0  0  0  0  0  0
   -4.0274  -12.4665   18.8736 H   0  0  0  0  0  0  0  0  0  0  0  0
  1  2  1  0
  2  3  1  0
  2  4  1  0
  4  5  1  0
  5  6  2  0
  5  7  1  0
  7  8  2  0
  8  9  1  0
  9 10  2  0
 10 11  1  0
 11 12  1  0
 12 13  1  0
 13 14  1  0
 14 15  1  0
 15 16  1  0
  2 17  1  0
 17 18  2  0
 18 19  1  0
 19 20  2  0
 20 21  1  0
 11  7  1  0
 16 12  1  0
 21 17  1  0
  1 22  1  0
  1 23  1  0
  1 24  1  0
  3 25  1  0
  3 26  1  0
  3 27  1  0
  4 28  1  0
  8 29  1  0
  9 30  1  0
 12 31  1  0
 13 32  1  0
 13 33  1  0
 14 34  1  0
 14 35  1  0
 15 36  1  0
 15 37  1  0
 16 38  1  0
 16 39  1  0
 19 40  1  0
 20 41  1  0
 21 42  1  0
M  END
>  <Energy>  (168) 
-5.9330619492572101

>  <compound_id>  (168) 
17986

>  <target_id>  (168) 
1

>  <reference_id>  (168) 
63

>  <inspiration_ids>  (168) 
[112, 63]

>  <energy_score>  (168) 
-19.957355840707663

>  <distance_score>  (168) 
13.508774158280607

>  <path>  (168) 
/opt/xchem-fragalysis-2/maxwin/BulkDock/SCRATCH/511024/C17986-P63/C17986-P63.minimised.mol

>  <scratch_subdir>  (168) 
/opt/xchem-fragalysis-2/maxwin/BulkDock/SCRATCH/511024/C17986-P63

>  <fragmenstein_runtime>  (168) 
18.037338972091675

>  <fragmenstein_outcome>  (168) 
too moved

>  <fragmenstein_mode>  (168) 
expansion

>  <fragmenstein_error>  (168) 


$$$$
C17987-P112
     RDKit          3D

 46 48  0  0  0  0  0  0  0  0999 V2000
   -0.5434  -13.0895   13.2459 O   0  0  0  0  0  0  0  0  0  0  0  0
   -0.6221  -13.5758   12.1818 C   0  0  0  0  0  0  0  0  0  0  0  0
    0.5952  -13.2320   11.3951 C   0  0  0  0  0  0  0  0  0  0  0  0
    0.9617  -10.9204   11.4727 S   0  0  0  0  0  0  0  0  0  0  0  0
    2.9140   -9.8403   11.3938 C   0  0  0  0  0  0  0  0  0  0  0  0
    3.0516   -7.8030   11.3905 C   0  0  0  0  0  0  0  0  0  0  0  0
    3.9349   -6.9045   11.8402 N   0  0  0  0  0  0  0  0  0  0  0  0
    3.5365   -5.6332   11.4606 C   0  0  0  0  0  0  0  0  0  0  0  0
    2.3423   -5.6797   10.8115 C   0  0  0  0  0  0  0  0  0  0  0  0
    1.9775   -6.9933   10.8740 N   0  0  0  0  0  0  0  0  0  0  0  0
   -2.1000  -14.4295   11.6283 N   0  0  0  0  0  0  0  0  0  0  0  0
   -3.8280  -14.6164   12.4746 C   0  0  0  0  0  0  0  0  0  0  0  0
   -5.7012  -15.0355   12.5021 C   0  0  0  0  0  0  0  0  0  0  0  0
   -6.7610  -15.9364   11.8997 C   0  0  0  0  0  0  0  0  0  0  0  0
   -7.6754  -15.7265   10.8403 C   0  0  0  0  0  0  0  0  0  0  0  0
   -8.4862  -16.8395   10.8341 C   0  0  0  0  0  0  0  0  0  0  0  0
   -8.0639  -17.6041   11.8761 N   0  0  0  0  0  0  0  0  0  0  0  0
   -8.5285  -18.9039   12.2552 C   0  0  0  0  0  0  0  0  0  0  0  0
   -7.5136  -19.9985   12.0816 C   0  0  0  0  0  0  0  0  0  0  0  0
   -8.1504  -21.1443   12.8469 C   0  0  0  0  0  0  0  0  0  0  0  0
   -8.8077  -20.5164   14.0573 C   0  0  0  0  0  0  0  0  0  0  0  0
   -9.0131  -19.0527   13.7019 C   0  0  0  0  0  0  0  0  0  0  0  0
   -7.0889  -17.0494   12.5813 N   0  0  0  0  0  0  0  0  0  0  0  0
    1.2165  -13.5272   12.2088 H   0  0  0  0  0  0  0  0  0  0  0  0
   -0.2337  -12.6398   11.0308 H   0  0  0  0  0  0  0  0  0  0  0  0
    3.4355  -10.3508   10.5611 H   0  0  0  0  0  0  0  0  0  0  0  0
    3.4562  -10.0276   12.3142 H   0  0  0  0  0  0  0  0  0  0  0  0
    4.0977   -4.7506   11.7263 H   0  0  0  0  0  0  0  0  0  0  0  0
    1.7028   -4.9207   10.3873 H   0  0  0  0  0  0  0  0  0  0  0  0
    1.1314   -7.3891   10.5069 H   0  0  0  0  0  0  0  0  0  0  0  0
   -1.9218  -14.8423   10.7185 H   0  0  0  0  0  0  0  0  0  0  0  0
   -3.5798  -14.2995   13.4477 H   0  0  0  0  0  0  0  0  0  0  0  0
   -4.1780  -13.6066   12.6963 H   0  0  0  0  0  0  0  0  0  0  0  0
   -6.2417  -14.1157   12.7632 H   0  0  0  0  0  0  0  0  0  0  0  0
   -5.5782  -15.7194   13.3396 H   0  0  0  0  0  0  0  0  0  0  0  0
   -7.7220  -14.8823   10.1686 H   0  0  0  0  0  0  0  0  0  0  0  0
   -9.3016  -17.1340   10.1881 H   0  0  0  0  0  0  0  0  0  0  0  0
   -9.2865  -19.1328   11.5266 H   0  0  0  0  0  0  0  0  0  0  0  0
   -7.3506  -20.1763   11.0209 H   0  0  0  0  0  0  0  0  0  0  0  0
   -6.5425  -19.7081   12.4734 H   0  0  0  0  0  0  0  0  0  0  0  0
   -8.9538  -21.6025   12.2672 H   0  0  0  0  0  0  0  0  0  0  0  0
   -7.4326  -21.9224   13.0949 H   0  0  0  0  0  0  0  0  0  0  0  0
   -9.7466  -21.0269   14.2398 H   0  0  0  0  0  0  0  0  0  0  0  0
   -8.2082  -20.6173   14.9629 H   0  0  0  0  0  0  0  0  0  0  0  0
   -8.4444  -18.4112   14.3728 H   0  0  0  0  0  0  0  0  0  0  0  0
  -10.0430  -18.7434   13.8697 H   0  0  0  0  0  0  0  0  0  0  0  0
  1  2  2  0
  2  3  1  0
  3  4  1  0
  4  5  1  0
  5  6  1  0
  6  7  2  0
  7  8  1  0
  8  9  2  0
  9 10  1  0
  2 11  1  0
 11 12  1  0
 12 13  1  0
 13 14  1  0
 14 15  1  0
 15 16  2  0
 16 17  1  0
 17 18  1  0
 18 19  1  0
 19 20  1  0
 20 21  1  0
 21 22  1  0
 17 23  1  0
 10  6  1  0
 23 14  2  0
 22 18  1  0
  3 24  1  0
  3 25  1  0
  5 26  1  0
  5 27  1  0
  8 28  1  0
  9 29  1  0
 10 30  1  0
 11 31  1  0
 12 32  1  0
 12 33  1  0
 13 34  1  0
 13 35  1  0
 15 36  1  0
 16 37  1  0
 18 38  1  0
 19 39  1  0
 19 40  1  0
 20 41  1  0
 20 42  1  0
 21 43  1  0
 21 44  1  0
 22 45  1  0
 22 46  1  0
M  END
>  <Energy>  (169) 
554.69078319056325

>  <compound_id>  (169) 
17987

>  <target_id>  (169) 
1

>  <reference_id>  (169) 
112

>  <inspiration_ids>  (169) 
[112, 63]

>  <energy_score>  (169) 
477.1838328848148

>  <distance_score>  (169) 
9.773007229064241

>  <path>  (169) 
/opt/xchem-fragalysis-2/maxwin/BulkDock/SCRATCH/511024/C17987-P112/C17987-P112.minimised.mol

>  <scratch_subdir>  (169) 
/opt/xchem-fragalysis-2/maxwin/BulkDock/SCRATCH/511024/C17987-P112

>  <fragmenstein_runtime>  (169) 
18.732388734817505

>  <fragmenstein_outcome>  (169) 
too moved

>  <fragmenstein_mode>  (169) 
expansion

>  <fragmenstein_error>  (169) 


$$$$
C17987-P63
     RDKit          3D

 46 48  0  0  0  0  0  0  0  0999 V2000
   -4.7569  -10.3560    7.9293 O   0  0  0  0  0  0  0  0  0  0  0  0
   -4.8953  -10.7741    6.8103 C   0  0  0  0  0  0  0  0  0  0  0  0
   -4.3969   -9.8412    5.6578 C   0  0  0  0  0  0  0  0  0  0  0  0
   -2.6086   -9.2500    5.7364 S   0  0  0  0  0  0  0  0  0  0  0  0
   -2.5401   -8.1524    7.2240 C   0  0  0  0  0  0  0  0  0  0  0  0
   -1.2275   -7.3620    7.4613 C   0  0  0  0  0  0  0  0  0  0  0  0
   -0.9584   -6.5827    8.5049 N   0  0  0  0  0  0  0  0  0  0  0  0
    0.2818   -6.0312    8.2926 C   0  0  0  0  0  0  0  0  0  0  0  0
    0.7848   -6.4584    7.0907 C   0  0  0  0  0  0  0  0  0  0  0  0
   -0.1528   -7.3308    6.5974 N   0  0  0  0  0  0  0  0  0  0  0  0
   -5.5419  -12.0070    6.3180 N   0  0  0  0  0  0  0  0  0  0  0  0
   -6.1420  -13.1736    7.0642 C   0  0  0  0  0  0  0  0  0  0  0  0
   -6.6840  -14.3491    6.1884 C   0  0  0  0  0  0  0  0  0  0  0  0
   -6.8291  -15.7627    6.8044 C   0  0  0  0  0  0  0  0  0  0  0  0
   -5.7920  -16.7162    6.9844 C   0  0  0  0  0  0  0  0  0  0  0  0
   -6.4030  -17.8888    7.3678 C   0  0  0  0  0  0  0  0  0  0  0  0
   -7.7441  -17.6564    7.2990 N   0  0  0  0  0  0  0  0  0  0  0  0
   -8.7905  -18.6621    7.2080 C   0  0  0  0  0  0  0  0  0  0  0  0
   -8.4108  -19.9478    6.4545 C   0  0  0  0  0  0  0  0  0  0  0  0
   -9.5452  -20.8992    6.7787 C   0  0  0  0  0  0  0  0  0  0  0  0
   -9.8497  -20.6117    8.2350 C   0  0  0  0  0  0  0  0  0  0  0  0
   -9.3621  -19.1826    8.5299 C   0  0  0  0  0  0  0  0  0  0  0  0
   -8.0257  -16.3449    7.0366 N   0  0  0  0  0  0  0  0  0  0  0  0
   -4.4971  -10.3535    4.6967 H   0  0  0  0  0  0  0  0  0  0  0  0
   -5.0466   -8.9605    5.6285 H   0  0  0  0  0  0  0  0  0  0  0  0
   -2.7023   -8.7967    8.0887 H   0  0  0  0  0  0  0  0  0  0  0  0
   -3.3591   -7.4295    7.1573 H   0  0  0  0  0  0  0  0  0  0  0  0
    0.7305   -5.3556    9.0087 H   0  0  0  0  0  0  0  0  0  0  0  0
    1.7066   -6.2512    6.5672 H   0  0  0  0  0  0  0  0  0  0  0  0
   -0.1019   -7.8465    5.7288 H   0  0  0  0  0  0  0  0  0  0  0  0
   -5.4004  -12.0794    5.3165 H   0  0  0  0  0  0  0  0  0  0  0  0
   -5.3855  -13.5280    7.7646 H   0  0  0  0  0  0  0  0  0  0  0  0
   -6.9539  -12.7636    7.6751 H   0  0  0  0  0  0  0  0  0  0  0  0
   -7.6536  -14.0490    5.7704 H   0  0  0  0  0  0  0  0  0  0  0  0
   -6.0130  -14.4617    5.3256 H   0  0  0  0  0  0  0  0  0  0  0  0
   -4.7298  -16.5764    6.8366 H   0  0  0  0  0  0  0  0  0  0  0  0
   -5.9845  -18.8566    7.6069 H   0  0  0  0  0  0  0  0  0  0  0  0
   -9.5901  -18.1834    6.6339 H   0  0  0  0  0  0  0  0  0  0  0  0
   -8.3127  -19.7777    5.3773 H   0  0  0  0  0  0  0  0  0  0  0  0
   -7.4660  -20.3718    6.8111 H   0  0  0  0  0  0  0  0  0  0  0  0
  -10.4180  -20.6672    6.1570 H   0  0  0  0  0  0  0  0  0  0  0  0
   -9.2776  -21.9454    6.6053 H   0  0  0  0  0  0  0  0  0  0  0  0
  -10.9136  -20.7478    8.3990 H   0  0  0  0  0  0  0  0  0  0  0  0
   -9.3477  -21.3216    8.8942 H   0  0  0  0  0  0  0  0  0  0  0  0
   -8.6069  -19.1934    9.3226 H   0  0  0  0  0  0  0  0  0  0  0  0
  -10.1749  -18.5400    8.8819 H   0  0  0  0  0  0  0  0  0  0  0  0
  1  2  2  0
  2  3  1  0
  3  4  1  0
  4  5  1  0
  5  6  1  0
  6  7  2  0
  7  8  1  0
  8  9  2  0
  9 10  1  0
  2 11  1  0
 11 12  1  0
 12 13  1  0
 13 14  1  0
 14 15  1  0
 15 16  2  0
 16 17  1  0
 17 18  1  0
 18 19  1  0
 19 20  1  0
 20 21  1  0
 21 22  1  0
 17 23  1  0
 10  6  1  0
 23 14  2  0
 22 18  1  0
  3 24  1  0
  3 25  1  0
  5 26  1  0
  5 27  1  0
  8 28  1  0
  9 29  1  0
 10 30  1  0
 11 31  1  0
 12 32  1  0
 12 33  1  0
 13 34  1  0
 13 35  1  0
 15 36  1  0
 16 37  1  0
 18 38  1  0
 19 39  1  0
 19 40  1  0
 20 41  1  0
 20 42  1  0
 21 43  1  0
 21 44  1  0
 22 45  1  0
 22 46  1  0
M  END
>  <Energy>  (170) 
62.910716752470712

>  <compound_id>  (170) 
17987

>  <target_id>  (170) 
1

>  <reference_id>  (170) 
63

>  <inspiration_ids>  (170) 
[112, 63]

>  <energy_score>  (170) 
-14.596233553272327

>  <distance_score>  (170) 
12.2741942522219

>  <path>  (170) 
/opt/xchem-fragalysis-2/maxwin/BulkDock/SCRATCH/511024/C17987-P63/C17987-P63.minimised.mol

>  <scratch_subdir>  (170) 
/opt/xchem-fragalysis-2/maxwin/BulkDock/SCRATCH/511024/C17987-P63

>  <fragmenstein_runtime>  (170) 
30.408085346221924

>  <fragmenstein_outcome>  (170) 
too moved

>  <fragmenstein_mode>  (170) 
expansion

>  <fragmenstein_error>  (170) 


$$$$
C17988-P112
     RDKit          3D

 43 45  0  0  0  0  0  0  0  0999 V2000
    2.2730  -11.0417   10.8365 C   0  0  0  0  0  0  0  0  0  0  0  0
    0.8967  -10.7048   11.5815 C   0  0  0  0  0  0  0  0  0  0  0  0
   -0.4477  -12.0727   12.3940 C   0  0  0  0  0  0  0  0  0  0  0  0
   -1.3390  -13.6279   13.5226 N   0  0  0  0  0  0  0  0  0  0  0  0
   -3.6695  -14.3294   14.0315 S   0  0  0  0  0  0  0  0  0  0  0  0
   -4.6993  -13.5289   13.3965 O   0  0  0  0  0  0  0  0  0  0  0  0
   -3.5734  -14.4803   15.5179 O   0  0  0  0  0  0  0  0  0  0  0  0
   -4.7258  -15.9394   14.3583 C   0  0  0  0  0  0  0  0  0  0  0  0
   -4.6221  -16.7460   15.5313 C   0  0  0  0  0  0  0  0  0  0  0  0
   -5.6097  -17.6302   15.6841 N   0  0  0  0  0  0  0  0  0  0  0  0
   -6.3794  -17.4461   14.5964 N   0  0  0  0  0  0  0  0  0  0  0  0
   -7.2585  -18.5530   14.2994 C   0  0  0  0  0  0  0  0  0  0  0  0
   -7.1681  -19.1787   12.9141 C   0  0  0  0  0  0  0  0  0  0  0  0
   -8.2651  -20.2326   12.9227 C   0  0  0  0  0  0  0  0  0  0  0  0
   -9.2027  -19.8231   14.0542 C   0  0  0  0  0  0  0  0  0  0  0  0
   -8.7583  -18.4279   14.5028 C   0  0  0  0  0  0  0  0  0  0  0  0
   -6.0217  -16.3011   13.9050 C   0  0  0  0  0  0  0  0  0  0  0  0
    1.0862   -8.7977   10.8570 C   0  0  0  0  0  0  0  0  0  0  0  0
    0.4726   -8.4026    9.6442 N   0  0  0  0  0  0  0  0  0  0  0  0
    0.5149   -7.0196    9.4379 C   0  0  0  0  0  0  0  0  0  0  0  0
    1.1127   -6.4124   10.4921 C   0  0  0  0  0  0  0  0  0  0  0  0
    1.3395   -7.4282   11.3663 N   0  0  0  0  0  0  0  0  0  0  0  0
    2.5250  -12.0600   10.6478 H   0  0  0  0  0  0  0  0  0  0  0  0
    2.3265  -10.7331    9.8064 H   0  0  0  0  0  0  0  0  0  0  0  0
    3.0791  -10.4482   11.2357 H   0  0  0  0  0  0  0  0  0  0  0  0
    0.2225  -10.8778   10.7503 H   0  0  0  0  0  0  0  0  0  0  0  0
   -0.4726  -12.6828   11.4951 H   0  0  0  0  0  0  0  0  0  0  0  0
   -1.1060  -11.2417   12.5523 H   0  0  0  0  0  0  0  0  0  0  0  0
   -1.0265  -14.4393   12.9337 H   0  0  0  0  0  0  0  0  0  0  0  0
   -3.9046  -16.6810   16.3315 H   0  0  0  0  0  0  0  0  0  0  0  0
   -6.9435  -19.3418   15.0009 H   0  0  0  0  0  0  0  0  0  0  0  0
   -7.3960  -18.4304   12.1481 H   0  0  0  0  0  0  0  0  0  0  0  0
   -6.1866  -19.6135   12.7039 H   0  0  0  0  0  0  0  0  0  0  0  0
   -8.7499  -20.2524   11.9501 H   0  0  0  0  0  0  0  0  0  0  0  0
   -7.8618  -21.2323   13.1083 H   0  0  0  0  0  0  0  0  0  0  0  0
   -9.0801  -20.5304   14.8837 H   0  0  0  0  0  0  0  0  0  0  0  0
  -10.2388  -19.8514   13.7472 H   0  0  0  0  0  0  0  0  0  0  0  0
   -9.1854  -17.6449   13.8665 H   0  0  0  0  0  0  0  0  0  0  0  0
   -9.0324  -18.2212   15.5414 H   0  0  0  0  0  0  0  0  0  0  0  0
   -6.6308  -15.8943   13.1092 H   0  0  0  0  0  0  0  0  0  0  0  0
    0.1133   -6.5832    8.5336 H   0  0  0  0  0  0  0  0  0  0  0  0
    1.3324   -5.3813   10.7242 H   0  0  0  0  0  0  0  0  0  0  0  0
    1.6904   -7.2849   12.2955 H   0  0  0  0  0  0  0  0  0  0  0  0
  1  2  1  0
  2  3  1  0
  3  4  1  0
  4  5  1  0
  5  6  2  0
  5  7  2  0
  5  8  1  0
  8  9  1  0
  9 10  2  0
 10 11  1  0
 11 12  1  0
 12 13  1  0
 13 14  1  0
 14 15  1  0
 15 16  1  0
 11 17  1  0
  2 18  1  0
 18 19  2  0
 19 20  1  0
 20 21  2  0
 21 22  1  0
 17  8  2  0
 22 18  1  0
 16 12  1  0
  1 23  1  0
  1 24  1  0
  1 25  1  0
  2 26  1  0
  3 27  1  0
  3 28  1  0
  4 29  1  0
  9 30  1  0
 12 31  1  0
 13 32  1  0
 13 33  1  0
 14 34  1  0
 14 35  1  0
 15 36  1  0
 15 37  1  0
 16 38  1  0
 16 39  1  0
 17 40  1  0
 20 41  1  0
 21 42  1  0
 22 43  1  0
M  END
>  <Energy>  (171) 
657.11173872361599

>  <compound_id>  (171) 
17988

>  <target_id>  (171) 
1

>  <reference_id>  (171) 
112

>  <inspiration_ids>  (171) 
[112, 63]

>  <energy_score>  (171) 
648.0296634909226

>  <distance_score>  (171) 
11.304793613707828

>  <path>  (171) 
/opt/xchem-fragalysis-2/maxwin/BulkDock/SCRATCH/511024/C17988-P112/C17988-P112.minimised.mol

>  <scratch_subdir>  (171) 
/opt/xchem-fragalysis-2/maxwin/BulkDock/SCRATCH/511024/C17988-P112

>  <fragmenstein_runtime>  (171) 
14.813246011734009

>  <fragmenstein_outcome>  (171) 
too moved

>  <fragmenstein_mode>  (171) 
expansion

>  <fragmenstein_error>  (171) 


$$$$
C17988-P63
     RDKit          3D

 43 45  0  0  0  0  0  0  0  0999 V2000
    4.8967  -11.0727   13.7659 C   0  0  0  0  0  0  0  0  0  0  0  0
    3.6069  -10.3048   13.6332 C   0  0  0  0  0  0  0  0  0  0  0  0
    1.8209  -11.1784   12.8390 C   0  0  0  0  0  0  0  0  0  0  0  0
    0.0515  -12.1941   13.1301 N   0  0  0  0  0  0  0  0  0  0  0  0
   -0.8598  -13.9580   13.9919 S   0  0  0  0  0  0  0  0  0  0  0  0
   -1.2153  -14.0967   15.6000 O   0  0  0  0  0  0  0  0  0  0  0  0
   -0.0259  -14.7856   13.1090 O   0  0  0  0  0  0  0  0  0  0  0  0
   -2.5085  -15.0796   15.1704 C   0  0  0  0  0  0  0  0  0  0  0  0
   -2.9494  -14.7398   16.7210 C   0  0  0  0  0  0  0  0  0  0  0  0
   -3.8243  -15.5783   17.3165 N   0  0  0  0  0  0  0  0  0  0  0  0
   -4.2358  -16.4126   16.3177 N   0  0  0  0  0  0  0  0  0  0  0  0
   -5.3560  -17.3115   16.5994 C   0  0  0  0  0  0  0  0  0  0  0  0
   -6.3007  -16.9287   17.7591 C   0  0  0  0  0  0  0  0  0  0  0  0
   -7.4284  -16.1480   17.1109 C   0  0  0  0  0  0  0  0  0  0  0  0
   -7.6834  -16.9100   15.8342 C   0  0  0  0  0  0  0  0  0  0  0  0
   -6.3323  -17.5282   15.4391 C   0  0  0  0  0  0  0  0  0  0  0  0
   -3.4081  -16.3396   15.1410 C   0  0  0  0  0  0  0  0  0  0  0  0
    4.0874   -8.2931   13.7352 C   0  0  0  0  0  0  0  0  0  0  0  0
    4.3909   -7.3110   12.8286 N   0  0  0  0  0  0  0  0  0  0  0  0
    4.1884   -5.9234   13.0978 C   0  0  0  0  0  0  0  0  0  0  0  0
    3.8915   -5.7470   14.4401 C   0  0  0  0  0  0  0  0  0  0  0  0
    3.6887   -7.0393   14.8894 N   0  0  0  0  0  0  0  0  0  0  0  0
    5.3084  -11.3024   12.8387 H   0  0  0  0  0  0  0  0  0  0  0  0
    4.8235  -11.9697   14.3570 H   0  0  0  0  0  0  0  0  0  0  0  0
    5.6585  -10.4720   14.1515 H   0  0  0  0  0  0  0  0  0  0  0  0
    3.4004  -10.4646   14.6607 H   0  0  0  0  0  0  0  0  0  0  0  0
    1.8587  -11.2769   11.7341 H   0  0  0  0  0  0  0  0  0  0  0  0
    1.6256  -11.6755   13.7914 H   0  0  0  0  0  0  0  0  0  0  0  0
   -0.1629  -12.4135   12.1461 H   0  0  0  0  0  0  0  0  0  0  0  0
   -2.5367  -13.9271   17.3083 H   0  0  0  0  0  0  0  0  0  0  0  0
   -4.8682  -18.2317   16.9062 H   0  0  0  0  0  0  0  0  0  0  0  0
   -6.7110  -17.8448   18.2052 H   0  0  0  0  0  0  0  0  0  0  0  0
   -5.8269  -16.3640   18.5666 H   0  0  0  0  0  0  0  0  0  0  0  0
   -8.3160  -16.0949   17.7485 H   0  0  0  0  0  0  0  0  0  0  0  0
   -7.1111  -15.1232   16.8933 H   0  0  0  0  0  0  0  0  0  0  0  0
   -8.0856  -16.2658   15.0463 H   0  0  0  0  0  0  0  0  0  0  0  0
   -8.4306  -17.6773   16.0461 H   0  0  0  0  0  0  0  0  0  0  0  0
   -6.4275  -18.6025   15.2935 H   0  0  0  0  0  0  0  0  0  0  0  0
   -5.9906  -17.1153   14.4885 H   0  0  0  0  0  0  0  0  0  0  0  0
   -3.4929  -17.1494   14.4770 H   0  0  0  0  0  0  0  0  0  0  0  0
    4.2634   -5.1825   12.3108 H   0  0  0  0  0  0  0  0  0  0  0  0
    3.6786   -4.8782   15.0458 H   0  0  0  0  0  0  0  0  0  0  0  0
    3.2858   -7.2914   15.7834 H   0  0  0  0  0  0  0  0  0  0  0  0
  1  2  1  0
  2  3  1  0
  3  4  1  0
  4  5  1  0
  5  6  2  0
  5  7  2  0
  5  8  1  0
  8  9  1  0
  9 10  2  0
 10 11  1  0
 11 12  1  0
 12 13  1  0
 13 14  1  0
 14 15  1  0
 15 16  1  0
 11 17  1  0
  2 18  1  0
 18 19  2  0
 19 20  1  0
 20 21  2  0
 21 22  1  0
 17  8  2  0
 22 18  1  0
 16 12  1  0
  1 23  1  0
  1 24  1  0
  1 25  1  0
  2 26  1  0
  3 27  1  0
  3 28  1  0
  4 29  1  0
  9 30  1  0
 12 31  1  0
 13 32  1  0
 13 33  1  0
 14 34  1  0
 14 35  1  0
 15 36  1  0
 15 37  1  0
 16 38  1  0
 16 39  1  0
 17 40  1  0
 20 41  1  0
 21 42  1  0
 22 43  1  0
M  END
>  <Energy>  (172) 
880.92140328108371

>  <compound_id>  (172) 
17988

>  <target_id>  (172) 
1

>  <reference_id>  (172) 
63

>  <inspiration_ids>  (172) 
[112, 63]

>  <energy_score>  (172) 
871.8393280483937

>  <distance_score>  (172) 
11.506548573489635

>  <path>  (172) 
/opt/xchem-fragalysis-2/maxwin/BulkDock/SCRATCH/511024/C17988-P63/C17988-P63.minimised.mol

>  <scratch_subdir>  (172) 
/opt/xchem-fragalysis-2/maxwin/BulkDock/SCRATCH/511024/C17988-P63

>  <fragmenstein_runtime>  (172) 
13.504610300064087

>  <fragmenstein_outcome>  (172) 
too moved

>  <fragmenstein_mode>  (172) 
expansion

>  <fragmenstein_error>  (172) 


$$$$
C17990-P112
     RDKit          3D

 40 42  0  0  0  0  0  0  0  0999 V2000
  -10.7146   -7.8570   16.5372 C   0  0  0  0  0  0  0  0  0  0  0  0
   -9.3034   -8.2499   16.5225 N   0  0  0  0  0  0  0  0  0  0  0  0
   -8.4286   -7.4703   15.5833 C   0  0  0  0  0  0  0  0  0  0  0  0
   -7.3608   -6.5180   16.1925 C   0  0  0  0  0  0  0  0  0  0  0  0
   -6.7591   -5.5072   15.5640 N   0  0  0  0  0  0  0  0  0  0  0  0
   -5.8047   -5.0033   16.4202 C   0  0  0  0  0  0  0  0  0  0  0  0
   -5.7763   -5.7346   17.5787 C   0  0  0  0  0  0  0  0  0  0  0  0
   -6.7924   -6.6545   17.4432 N   0  0  0  0  0  0  0  0  0  0  0  0
   -8.9106   -9.8151   17.0353 S   0  0  0  0  0  0  0  0  0  0  0  0
   -7.5039   -9.9622   16.7592 O   0  0  0  0  0  0  0  0  0  0  0  0
   -9.4017   -9.9104   18.3970 O   0  0  0  0  0  0  0  0  0  0  0  0
   -9.6114  -11.2459   16.3067 C   0  0  0  0  0  0  0  0  0  0  0  0
  -10.1182  -11.4469   15.0145 C   0  0  0  0  0  0  0  0  0  0  0  0
  -10.5210  -12.7102   14.7961 N   0  0  0  0  0  0  0  0  0  0  0  0
  -10.2026  -13.3646   15.9333 N   0  0  0  0  0  0  0  0  0  0  0  0
  -10.4912  -14.7824   16.0919 C   0  0  0  0  0  0  0  0  0  0  0  0
  -10.8879  -15.5276   14.8177 C   0  0  0  0  0  0  0  0  0  0  0  0
  -10.7335  -16.9813   15.2196 C   0  0  0  0  0  0  0  0  0  0  0  0
   -9.4416  -17.0070   16.0100 C   0  0  0  0  0  0  0  0  0  0  0  0
   -9.3245  -15.6197   16.6406 C   0  0  0  0  0  0  0  0  0  0  0  0
   -9.6972  -12.5122   16.8845 C   0  0  0  0  0  0  0  0  0  0  0  0
  -11.2602   -8.3489   17.3473 H   0  0  0  0  0  0  0  0  0  0  0  0
  -10.8007   -6.7782   16.7005 H   0  0  0  0  0  0  0  0  0  0  0  0
  -11.1891   -8.1129   15.5855 H   0  0  0  0  0  0  0  0  0  0  0  0
   -7.9613   -8.1542   14.8721 H   0  0  0  0  0  0  0  0  0  0  0  0
   -9.0737   -6.8336   14.9620 H   0  0  0  0  0  0  0  0  0  0  0  0
   -5.2011   -4.1497   16.1440 H   0  0  0  0  0  0  0  0  0  0  0  0
   -5.1771   -5.6774   18.4756 H   0  0  0  0  0  0  0  0  0  0  0  0
   -7.0684   -7.3569   18.1155 H   0  0  0  0  0  0  0  0  0  0  0  0
  -10.2146  -10.7306   14.2090 H   0  0  0  0  0  0  0  0  0  0  0  0
  -11.3278  -14.8286   16.8032 H   0  0  0  0  0  0  0  0  0  0  0  0
  -11.9086  -15.2736   14.5206 H   0  0  0  0  0  0  0  0  0  0  0  0
  -10.2154  -15.2910   13.9839 H   0  0  0  0  0  0  0  0  0  0  0  0
  -11.5730  -17.2651   15.8618 H   0  0  0  0  0  0  0  0  0  0  0  0
  -10.6856  -17.6528   14.3632 H   0  0  0  0  0  0  0  0  0  0  0  0
   -9.4259  -17.8013   16.7609 H   0  0  0  0  0  0  0  0  0  0  0  0
   -8.5915  -17.1757   15.3382 H   0  0  0  0  0  0  0  0  0  0  0  0
   -9.3786  -15.6799   17.7333 H   0  0  0  0  0  0  0  0  0  0  0  0
   -8.3522  -15.1803   16.3883 H   0  0  0  0  0  0  0  0  0  0  0  0
   -9.4089  -12.8613   17.8666 H   0  0  0  0  0  0  0  0  0  0  0  0
  1  2  1  0
  2  3  1  0
  3  4  1  0
  4  5  2  0
  5  6  1  0
  6  7  2  0
  7  8  1  0
  2  9  1  0
  9 10  2  0
  9 11  2  0
  9 12  1  0
 12 13  1  0
 13 14  2  0
 14 15  1  0
 15 16  1  0
 16 17  1  0
 17 18  1  0
 18 19  1  0
 19 20  1  0
 15 21  1  0
  8  4  1  0
 21 12  2  0
 20 16  1  0
  1 22  1  0
  1 23  1  0
  1 24  1  0
  3 25  1  0
  3 26  1  0
  6 27  1  0
  7 28  1  0
  8 29  1  0
 13 30  1  0
 16 31  1  0
 17 32  1  0
 17 33  1  0
 18 34  1  0
 18 35  1  0
 19 36  1  0
 19 37  1  0
 20 38  1  0
 20 39  1  0
 21 40  1  0
M  END
>  <Energy>  (173) 
-21.18930921503496

>  <compound_id>  (173) 
17990

>  <target_id>  (173) 
1

>  <reference_id>  (173) 
112

>  <inspiration_ids>  (173) 
[112, 63]

>  <energy_score>  (173) 
-28.94458218651647

>  <distance_score>  (173) 
14.66854396961545

>  <path>  (173) 
/opt/xchem-fragalysis-2/maxwin/BulkDock/SCRATCH/511024/C17990-P112/C17990-P112.minimised.mol

>  <scratch_subdir>  (173) 
/opt/xchem-fragalysis-2/maxwin/BulkDock/SCRATCH/511024/C17990-P112

>  <fragmenstein_runtime>  (173) 
14.029918909072876

>  <fragmenstein_outcome>  (173) 
too moved

>  <fragmenstein_mode>  (173) 
expansion

>  <fragmenstein_error>  (173) 


$$$$
C17990-P63
     RDKit          3D

 40 42  0  0  0  0  0  0  0  0999 V2000
    4.2283  -12.9800   19.0480 C   0  0  0  0  0  0  0  0  0  0  0  0
    3.0510  -12.3385   17.9704 N   0  0  0  0  0  0  0  0  0  0  0  0
    3.1407  -10.4572   17.4366 C   0  0  0  0  0  0  0  0  0  0  0  0
    4.1193   -8.9970   18.2624 C   0  0  0  0  0  0  0  0  0  0  0  0
    3.8834   -7.6658   18.1572 N   0  0  0  0  0  0  0  0  0  0  0  0
    5.1563   -6.9220   18.1741 C   0  0  0  0  0  0  0  0  0  0  0  0
    6.0866   -7.7500   18.6767 C   0  0  0  0  0  0  0  0  0  0  0  0
    5.5477   -9.0032   18.4974 N   0  0  0  0  0  0  0  0  0  0  0  0
    1.3775  -13.9444   17.7749 S   0  0  0  0  0  0  0  0  0  0  0  0
    1.2529  -14.1877   16.4019 O   0  0  0  0  0  0  0  0  0  0  0  0
    2.1484  -14.9475   18.4812 O   0  0  0  0  0  0  0  0  0  0  0  0
   -0.9512  -13.7966   17.9928 C   0  0  0  0  0  0  0  0  0  0  0  0
   -1.9063  -14.1906   16.9468 C   0  0  0  0  0  0  0  0  0  0  0  0
   -2.6584  -15.3039   17.0577 N   0  0  0  0  0  0  0  0  0  0  0  0
   -2.3759  -16.0047   18.5422 N   0  0  0  0  0  0  0  0  0  0  0  0
   -3.0657  -17.3562   18.8929 C   0  0  0  0  0  0  0  0  0  0  0  0
   -4.2172  -17.7508   17.9002 C   0  0  0  0  0  0  0  0  0  0  0  0
   -5.0164  -18.8712   18.5383 C   0  0  0  0  0  0  0  0  0  0  0  0
   -4.9922  -18.5150   20.0052 C   0  0  0  0  0  0  0  0  0  0  0  0
   -3.6193  -17.8486   20.2540 C   0  0  0  0  0  0  0  0  0  0  0  0
   -1.5304  -15.0715   19.0350 C   0  0  0  0  0  0  0  0  0  0  0  0
    5.1654  -12.4061   19.1058 H   0  0  0  0  0  0  0  0  0  0  0  0
    4.3520  -13.9924   18.6618 H   0  0  0  0  0  0  0  0  0  0  0  0
    3.9914  -12.9757   20.1157 H   0  0  0  0  0  0  0  0  0  0  0  0
    2.2329   -9.9286   17.7184 H   0  0  0  0  0  0  0  0  0  0  0  0
    3.5326  -10.5701   16.4446 H   0  0  0  0  0  0  0  0  0  0  0  0
    5.1919   -5.8569   18.0448 H   0  0  0  0  0  0  0  0  0  0  0  0
    6.9850   -7.6088   19.2306 H   0  0  0  0  0  0  0  0  0  0  0  0
    6.0661   -9.8591   18.5833 H   0  0  0  0  0  0  0  0  0  0  0  0
   -1.6505  -14.1170   15.9371 H   0  0  0  0  0  0  0  0  0  0  0  0
   -2.2328  -18.0499   18.7160 H   0  0  0  0  0  0  0  0  0  0  0  0
   -4.8329  -16.8946   17.6605 H   0  0  0  0  0  0  0  0  0  0  0  0
   -3.8514  -18.0771   16.9399 H   0  0  0  0  0  0  0  0  0  0  0  0
   -6.0320  -18.9410   18.1387 H   0  0  0  0  0  0  0  0  0  0  0  0
   -4.5204  -19.8339   18.3789 H   0  0  0  0  0  0  0  0  0  0  0  0
   -5.1350  -19.3920   20.6443 H   0  0  0  0  0  0  0  0  0  0  0  0
   -5.8006  -17.8125   20.2350 H   0  0  0  0  0  0  0  0  0  0  0  0
   -3.7175  -17.0972   21.0273 H   0  0  0  0  0  0  0  0  0  0  0  0
   -2.9401  -18.6058   20.6635 H   0  0  0  0  0  0  0  0  0  0  0  0
   -1.0637  -15.6504   19.8062 H   0  0  0  0  0  0  0  0  0  0  0  0
  1  2  1  0
  2  3  1  0
  3  4  1  0
  4  5  2  0
  5  6  1  0
  6  7  2  0
  7  8  1  0
  2  9  1  0
  9 10  2  0
  9 11  2  0
  9 12  1  0
 12 13  1  0
 13 14  2  0
 14 15  1  0
 15 16  1  0
 16 17  1  0
 17 18  1  0
 18 19  1  0
 19 20  1  0
 15 21  1  0
  8  4  1  0
 21 12  2  0
 20 16  1  0
  1 22  1  0
  1 23  1  0
  1 24  1  0
  3 25  1  0
  3 26  1  0
  6 27  1  0
  7 28  1  0
  8 29  1  0
 13 30  1  0
 16 31  1  0
 17 32  1  0
 17 33  1  0
 18 34  1  0
 18 35  1  0
 19 36  1  0
 19 37  1  0
 20 38  1  0
 20 39  1  0
 21 40  1  0
M  END
>  <Energy>  (174) 
486.01297123440281

>  <compound_id>  (174) 
17990

>  <target_id>  (174) 
1

>  <reference_id>  (174) 
63

>  <inspiration_ids>  (174) 
[112, 63]

>  <energy_score>  (174) 
478.2576982629298

>  <distance_score>  (174) 
13.075325315248609

>  <path>  (174) 
/opt/xchem-fragalysis-2/maxwin/BulkDock/SCRATCH/511024/C17990-P63/C17990-P63.minimised.mol

>  <scratch_subdir>  (174) 
/opt/xchem-fragalysis-2/maxwin/BulkDock/SCRATCH/511024/C17990-P63

>  <fragmenstein_runtime>  (174) 
13.973694086074829

>  <fragmenstein_outcome>  (174) 
too moved

>  <fragmenstein_mode>  (174) 
expansion

>  <fragmenstein_error>  (174) 


$$$$
C17991-P112
     RDKit          3D

 42 44  0  0  0  0  0  0  0  0999 V2000
   -2.9055  -17.3244   17.2787 O   0  0  0  0  0  0  0  0  0  0  0  0
   -3.4110  -16.2555   17.0655 C   0  0  0  0  0  0  0  0  0  0  0  0
   -2.5262  -14.5746   17.1678 N   0  0  0  0  0  0  0  0  0  0  0  0
   -0.6196  -14.1160   17.4801 C   0  0  0  0  0  0  0  0  0  0  0  0
    1.4846  -13.9864   17.4853 C   0  0  0  0  0  0  0  0  0  0  0  0
    3.0293  -12.5000   17.7682 C   0  0  0  0  0  0  0  0  0  0  0  0
    2.8892  -10.5499   17.4544 C   0  0  0  0  0  0  0  0  0  0  0  0
    1.8313   -9.7788   17.7053 N   0  0  0  0  0  0  0  0  0  0  0  0
    1.6779   -8.4883   17.7527 C   0  0  0  0  0  0  0  0  0  0  0  0
    2.9380   -8.2549   17.9436 C   0  0  0  0  0  0  0  0  0  0  0  0
    3.6099   -9.4415   17.7836 N   0  0  0  0  0  0  0  0  0  0  0  0
   -4.8578  -16.4651   16.6425 C   0  0  0  0  0  0  0  0  0  0  0  0
   -5.0025  -17.0810   15.3858 C   0  0  0  0  0  0  0  0  0  0  0  0
   -6.1257  -17.7125   15.0944 N   0  0  0  0  0  0  0  0  0  0  0  0
   -6.7416  -17.7106   16.2747 N   0  0  0  0  0  0  0  0  0  0  0  0
   -8.0094  -18.4141   16.4380 C   0  0  0  0  0  0  0  0  0  0  0  0
   -8.1202  -19.7534   15.6919 C   0  0  0  0  0  0  0  0  0  0  0  0
   -8.7327  -19.4386   14.3297 C   0  0  0  0  0  0  0  0  0  0  0  0
   -9.3500  -18.0485   14.4456 C   0  0  0  0  0  0  0  0  0  0  0  0
   -9.1604  -17.5835   15.8813 C   0  0  0  0  0  0  0  0  0  0  0  0
   -5.9814  -17.0622   17.2438 C   0  0  0  0  0  0  0  0  0  0  0  0
   -3.1361  -13.8565   16.8692 H   0  0  0  0  0  0  0  0  0  0  0  0
   -0.8723  -13.0505   17.5710 H   0  0  0  0  0  0  0  0  0  0  0  0
   -0.5481  -14.1479   16.4141 H   0  0  0  0  0  0  0  0  0  0  0  0
    1.9391  -14.9102   17.8849 H   0  0  0  0  0  0  0  0  0  0  0  0
    1.5708  -14.1147   16.4181 H   0  0  0  0  0  0  0  0  0  0  0  0
    3.8352  -12.2059   17.1029 H   0  0  0  0  0  0  0  0  0  0  0  0
    3.7880  -12.8688   18.4980 H   0  0  0  0  0  0  0  0  0  0  0  0
    0.6772   -8.1128   17.6802 H   0  0  0  0  0  0  0  0  0  0  0  0
    3.5580   -7.4311   18.2040 H   0  0  0  0  0  0  0  0  0  0  0  0
    4.5183   -9.5092   18.2229 H   0  0  0  0  0  0  0  0  0  0  0  0
   -4.1678  -17.0230   14.7366 H   0  0  0  0  0  0  0  0  0  0  0  0
   -8.1276  -18.5715   17.5165 H   0  0  0  0  0  0  0  0  0  0  0  0
   -8.7930  -20.4175   16.2396 H   0  0  0  0  0  0  0  0  0  0  0  0
   -7.1623  -20.2753   15.5980 H   0  0  0  0  0  0  0  0  0  0  0  0
   -9.4662  -20.1941   14.0352 H   0  0  0  0  0  0  0  0  0  0  0  0
   -7.9573  -19.4363   13.5549 H   0  0  0  0  0  0  0  0  0  0  0  0
  -10.4097  -18.0389   14.1955 H   0  0  0  0  0  0  0  0  0  0  0  0
   -8.8489  -17.3617   13.7535 H   0  0  0  0  0  0  0  0  0  0  0  0
  -10.0715  -17.7673   16.4516 H   0  0  0  0  0  0  0  0  0  0  0  0
   -8.9788  -16.5037   15.9282 H   0  0  0  0  0  0  0  0  0  0  0  0
   -6.2648  -17.2352   18.2642 H   0  0  0  0  0  0  0  0  0  0  0  0
  1  2  2  0
  2  3  1  0
  3  4  1  0
  4  5  1  0
  5  6  1  0
  6  7  1  0
  7  8  2  0
  8  9  1  0
  9 10  2  0
 10 11  1  0
  2 12  1  0
 12 13  1  0
 13 14  2  0
 14 15  1  0
 15 16  1  0
 16 17  1  0
 17 18  1  0
 18 19  1  0
 19 20  1  0
 15 21  1  0
 11  7  1  0
 21 12  2  0
 20 16  1  0
  3 22  1  0
  4 23  1  0
  4 24  1  0
  5 25  1  0
  5 26  1  0
  6 27  1  0
  6 28  1  0
  9 29  1  0
 10 30  1  0
 11 31  1  0
 13 32  1  0
 16 33  1  0
 17 34  1  0
 17 35  1  0
 18 36  1  0
 18 37  1  0
 19 38  1  0
 19 39  1  0
 20 40  1  0
 20 41  1  0
 21 42  1  0
M  END
>  <Energy>  (175) 
630.42008715362124

>  <compound_id>  (175) 
17991

>  <target_id>  (175) 
1

>  <reference_id>  (175) 
112

>  <inspiration_ids>  (175) 
[112, 63]

>  <energy_score>  (175) 
610.9878326456202

>  <distance_score>  (175) 
10.7751865878968

>  <path>  (175) 
/opt/xchem-fragalysis-2/maxwin/BulkDock/SCRATCH/511024/C17991-P112/C17991-P112.minimised.mol

>  <scratch_subdir>  (175) 
/opt/xchem-fragalysis-2/maxwin/BulkDock/SCRATCH/511024/C17991-P112

>  <fragmenstein_runtime>  (175) 
17.369652271270752

>  <fragmenstein_outcome>  (175) 
too moved

>  <fragmenstein_mode>  (175) 
expansion

>  <fragmenstein_error>  (175) 


$$$$
C17991-P63
     RDKit          3D

 42 44  0  0  0  0  0  0  0  0999 V2000
   -3.4819  -16.6753   18.3331 O   0  0  0  0  0  0  0  0  0  0  0  0
   -3.6412  -16.3143   17.1946 C   0  0  0  0  0  0  0  0  0  0  0  0
   -2.5237  -14.8408   16.6084 N   0  0  0  0  0  0  0  0  0  0  0  0
   -1.0898  -13.7329   17.5576 C   0  0  0  0  0  0  0  0  0  0  0  0
    1.0963  -13.7069   17.6795 C   0  0  0  0  0  0  0  0  0  0  0  0
    2.9819  -12.5585   17.9874 C   0  0  0  0  0  0  0  0  0  0  0  0
    2.8627  -10.6264   17.5100 C   0  0  0  0  0  0  0  0  0  0  0  0
    1.8932   -9.8111   17.9901 N   0  0  0  0  0  0  0  0  0  0  0  0
    1.8134   -8.5853   17.6383 C   0  0  0  0  0  0  0  0  0  0  0  0
    3.0510   -8.3551   17.9530 C   0  0  0  0  0  0  0  0  0  0  0  0
    3.6631   -9.5567   17.6707 N   0  0  0  0  0  0  0  0  0  0  0  0
   -4.8627  -17.4863   16.3477 C   0  0  0  0  0  0  0  0  0  0  0  0
   -5.2860  -18.6615   17.2992 C   0  0  0  0  0  0  0  0  0  0  0  0
   -6.0100  -19.7769   16.9870 N   0  0  0  0  0  0  0  0  0  0  0  0
   -6.3494  -19.7852   15.6444 N   0  0  0  0  0  0  0  0  0  0  0  0
   -7.2571  -21.2641   14.9611 C   0  0  0  0  0  0  0  0  0  0  0  0
   -7.6358  -21.7249   13.1074 C   0  0  0  0  0  0  0  0  0  0  0  0
   -8.9544  -22.3912   12.8045 C   0  0  0  0  0  0  0  0  0  0  0  0
   -9.7317  -22.1443   14.0146 C   0  0  0  0  0  0  0  0  0  0  0  0
   -8.8129  -21.7753   15.2232 C   0  0  0  0  0  0  0  0  0  0  0  0
   -5.7598  -18.2021   15.2749 C   0  0  0  0  0  0  0  0  0  0  0  0
   -2.6864  -14.6939   15.6352 H   0  0  0  0  0  0  0  0  0  0  0  0
   -1.5178  -12.7351   17.6876 H   0  0  0  0  0  0  0  0  0  0  0  0
   -1.4549  -14.2989   18.4287 H   0  0  0  0  0  0  0  0  0  0  0  0
    1.5870  -14.5819   18.0958 H   0  0  0  0  0  0  0  0  0  0  0  0
    1.2457  -14.0073   16.6562 H   0  0  0  0  0  0  0  0  0  0  0  0
    3.7803  -12.2540   17.2794 H   0  0  0  0  0  0  0  0  0  0  0  0
    3.7576  -13.0266   18.6452 H   0  0  0  0  0  0  0  0  0  0  0  0
    0.8475   -8.2080   17.3578 H   0  0  0  0  0  0  0  0  0  0  0  0
    3.7244   -7.5552   18.1746 H   0  0  0  0  0  0  0  0  0  0  0  0
    4.5549   -9.6451   18.1283 H   0  0  0  0  0  0  0  0  0  0  0  0
   -4.9458  -18.6430   18.3305 H   0  0  0  0  0  0  0  0  0  0  0  0
   -6.7953  -21.9407   15.6529 H   0  0  0  0  0  0  0  0  0  0  0  0
   -6.9796  -22.4312   12.6026 H   0  0  0  0  0  0  0  0  0  0  0  0
   -7.6474  -20.8677   12.4173 H   0  0  0  0  0  0  0  0  0  0  0  0
   -8.8827  -23.4580   12.5697 H   0  0  0  0  0  0  0  0  0  0  0  0
   -9.4274  -21.9466   11.9194 H   0  0  0  0  0  0  0  0  0  0  0  0
  -10.2742  -23.0755   14.1967 H   0  0  0  0  0  0  0  0  0  0  0  0
  -10.4453  -21.3784   13.7346 H   0  0  0  0  0  0  0  0  0  0  0  0
   -8.6925  -22.8302   15.4428 H   0  0  0  0  0  0  0  0  0  0  0  0
   -9.2787  -21.2307   16.0306 H   0  0  0  0  0  0  0  0  0  0  0  0
   -5.9847  -18.0029   14.2403 H   0  0  0  0  0  0  0  0  0  0  0  0
  1  2  2  0
  2  3  1  0
  3  4  1  0
  4  5  1  0
  5  6  1  0
  6  7  1  0
  7  8  2  0
  8  9  1  0
  9 10  2  0
 10 11  1  0
  2 12  1  0
 12 13  1  0
 13 14  2  0
 14 15  1  0
 15 16  1  0
 16 17  1  0
 17 18  1  0
 18 19  1  0
 19 20  1  0
 15 21  1  0
 11  7  1  0
 21 12  2  0
 20 16  1  0
  3 22  1  0
  4 23  1  0
  4 24  1  0
  5 25  1  0
  5 26  1  0
  6 27  1  0
  6 28  1  0
  9 29  1  0
 10 30  1  0
 11 31  1  0
 13 32  1  0
 16 33  1  0
 17 34  1  0
 17 35  1  0
 18 36  1  0
 18 37  1  0
 19 38  1  0
 19 39  1  0
 20 40  1  0
 20 41  1  0
 21 42  1  0
M  END
>  <Energy>  (176) 
1018.5069611361498

>  <compound_id>  (176) 
17991

>  <target_id>  (176) 
1

>  <reference_id>  (176) 
63

>  <inspiration_ids>  (176) 
[112, 63]

>  <energy_score>  (176) 
999.0747066281579

>  <distance_score>  (176) 
9.852629878132014

>  <path>  (176) 
/opt/xchem-fragalysis-2/maxwin/BulkDock/SCRATCH/511024/C17991-P63/C17991-P63.minimised.mol

>  <scratch_subdir>  (176) 
/opt/xchem-fragalysis-2/maxwin/BulkDock/SCRATCH/511024/C17991-P63

>  <fragmenstein_runtime>  (176) 
15.565259218215942

>  <fragmenstein_outcome>  (176) 
too moved

>  <fragmenstein_mode>  (176) 
expansion

>  <fragmenstein_error>  (176) 


$$$$
C48743-P112
     RDKit          3D

 43 45  0  0  0  0  0  0  0  0999 V2000
    2.5715  -17.1705    7.0841 C   0  0  0  0  0  0  0  0  0  0  0  0
    1.4495  -17.7294    6.5815 N   0  0  0  0  0  0  0  0  0  0  0  0
    2.4606  -16.9787    8.0488 C   0  0  0  0  0  0  0  0  0  0  0  0
    3.4986  -15.5044    8.2025 C   0  0  0  0  0  0  0  0  0  0  0  0
    4.8712  -15.4470    8.4125 C   0  0  0  0  0  0  0  0  0  0  0  0
    5.1973  -14.1094    8.4179 N   0  0  0  0  0  0  0  0  0  0  0  0
    4.0427  -13.4078    8.2254 C   0  0  0  0  0  0  0  0  0  0  0  0
    3.0092  -14.2160    8.0949 N   0  0  0  0  0  0  0  0  0  0  0  0
    0.1770  -18.0719    7.0795 C   0  0  0  0  0  0  0  0  0  0  0  0
   -0.8113  -17.3499    7.0917 O   0  0  0  0  0  0  0  0  0  0  0  0
   -0.0252  -19.5871    7.5685 C   0  0  0  0  0  0  0  0  0  0  0  0
    0.9421  -20.2599    7.7966 O   0  0  0  0  0  0  0  0  0  0  0  0
   -1.4549  -19.9332    7.5635 N   0  0  0  0  0  0  0  0  0  0  0  0
   -2.1112  -21.1174    7.9109 C   0  0  0  0  0  0  0  0  0  0  0  0
   -1.6114  -22.4136    8.1842 C   0  0  0  0  0  0  0  0  0  0  0  0
   -2.5521  -23.2814    8.5891 N   0  0  0  0  0  0  0  0  0  0  0  0
   -3.6892  -22.5581    8.5765 N   0  0  0  0  0  0  0  0  0  0  0  0
   -4.9304  -23.1503    9.0659 C   0  0  0  0  0  0  0  0  0  0  0  0
   -4.9088  -23.5490   10.5519 C   0  0  0  0  0  0  0  0  0  0  0  0
   -5.8518  -24.7480   10.7100 C   0  0  0  0  0  0  0  0  0  0  0  0
   -6.3396  -25.1124    9.3152 C   0  0  0  0  0  0  0  0  0  0  0  0
   -5.3626  -24.4382    8.3590 C   0  0  0  0  0  0  0  0  0  0  0  0
   -3.4747  -21.2641    8.1396 C   0  0  0  0  0  0  0  0  0  0  0  0
    3.0913  -18.2328    6.8666 H   0  0  0  0  0  0  0  0  0  0  0  0
    2.3263  -16.2868    6.3201 H   0  0  0  0  0  0  0  0  0  0  0  0
    3.5094  -17.0237    6.3628 H   0  0  0  0  0  0  0  0  0  0  0  0
    2.8053  -17.7796    8.8393 H   0  0  0  0  0  0  0  0  0  0  0  0
    1.5786  -16.5764    8.6822 H   0  0  0  0  0  0  0  0  0  0  0  0
    5.6175  -16.2175    8.5452 H   0  0  0  0  0  0  0  0  0  0  0  0
    6.1202  -13.7160    8.5388 H   0  0  0  0  0  0  0  0  0  0  0  0
    4.0093  -12.3274    8.1862 H   0  0  0  0  0  0  0  0  0  0  0  0
   -2.0017  -19.0887    7.4076 H   0  0  0  0  0  0  0  0  0  0  0  0
   -0.5824  -22.7463    8.1287 H   0  0  0  0  0  0  0  0  0  0  0  0
   -5.6896  -22.3868    8.9077 H   0  0  0  0  0  0  0  0  0  0  0  0
   -3.9022  -23.8390   10.8773 H   0  0  0  0  0  0  0  0  0  0  0  0
   -5.2059  -22.7117   11.1919 H   0  0  0  0  0  0  0  0  0  0  0  0
   -6.6825  -24.5327   11.3880 H   0  0  0  0  0  0  0  0  0  0  0  0
   -5.3003  -25.5885   11.1480 H   0  0  0  0  0  0  0  0  0  0  0  0
   -6.3620  -26.1970    9.1661 H   0  0  0  0  0  0  0  0  0  0  0  0
   -7.3557  -24.7533    9.1464 H   0  0  0  0  0  0  0  0  0  0  0  0
   -4.5061  -25.1019    8.1881 H   0  0  0  0  0  0  0  0  0  0  0  0
   -5.8178  -24.2377    7.3837 H   0  0  0  0  0  0  0  0  0  0  0  0
   -4.2825  -20.5473    8.1021 H   0  0  0  0  0  0  0  0  0  0  0  0
  1  2  1  0
  2  3  1  0
  3  4  1  0
  4  5  2  0
  5  6  1  0
  6  7  1  0
  7  8  2  0
  2  9  1  0
  9 10  2  0
  9 11  1  0
 11 12  2  0
 11 13  1  0
 13 14  1  0
 14 15  1  0
 15 16  2  0
 16 17  1  0
 17 18  1  0
 18 19  1  0
 19 20  1  0
 20 21  1  0
 21 22  1  0
 17 23  1  0
  8  4  1  0
 23 14  2  0
 22 18  1  0
  1 24  1  0
  1 25  1  0
  1 26  1  0
  3 27  1  0
  3 28  1  0
  5 29  1  0
  6 30  1  0
  7 31  1  0
 13 32  1  0
 15 33  1  0
 18 34  1  0
 19 35  1  0
 19 36  1  0
 20 37  1  0
 20 38  1  0
 21 39  1  0
 21 40  1  0
 22 41  1  0
 22 42  1  0
 23 43  1  0
M  END
>  <Energy>  (177) 
654.73804161064481

>  <compound_id>  (177) 
48743

>  <target_id>  (177) 
1

>  <reference_id>  (177) 
112

>  <inspiration_ids>  (177) 
[112, 63]

>  <energy_score>  (177) 
545.9839888849908

>  <distance_score>  (177) 
13.64510637319472

>  <path>  (177) 
/opt/xchem-fragalysis-2/maxwin/BulkDock/SCRATCH/511024/C48743-P112/C48743-P112.minimised.mol

>  <scratch_subdir>  (177) 
/opt/xchem-fragalysis-2/maxwin/BulkDock/SCRATCH/511024/C48743-P112

>  <fragmenstein_runtime>  (177) 
21.483149528503418

>  <fragmenstein_outcome>  (177) 
too moved

>  <fragmenstein_mode>  (177) 
expansion

>  <fragmenstein_error>  (177) 


$$$$
C48743-P63
     RDKit          3D

 43 45  0  0  0  0  0  0  0  0999 V2000
    0.5498   -9.9826   11.1854 C   0  0  0  0  0  0  0  0  0  0  0  0
    1.3335  -10.6653   12.1696 N   0  0  0  0  0  0  0  0  0  0  0  0
    1.1782   -9.3514   10.8581 C   0  0  0  0  0  0  0  0  0  0  0  0
    2.4890   -8.3798   11.5567 C   0  0  0  0  0  0  0  0  0  0  0  0
    3.6215   -8.7844   12.2379 C   0  0  0  0  0  0  0  0  0  0  0  0
    4.1697   -7.6343   12.7371 N   0  0  0  0  0  0  0  0  0  0  0  0
    3.4176   -6.5854   12.2887 C   0  0  0  0  0  0  0  0  0  0  0  0
    2.4005   -6.9993   11.5661 N   0  0  0  0  0  0  0  0  0  0  0  0
    0.4806  -11.6512   12.7894 C   0  0  0  0  0  0  0  0  0  0  0  0
   -0.0646  -11.1813   13.7565 O   0  0  0  0  0  0  0  0  0  0  0  0
    0.1414  -13.3882   12.6215 C   0  0  0  0  0  0  0  0  0  0  0  0
   -0.5506  -13.7439   13.4947 O   0  0  0  0  0  0  0  0  0  0  0  0
    0.6582  -14.0769   11.5609 N   0  0  0  0  0  0  0  0  0  0  0  0
    0.4380  -15.5176   11.0857 C   0  0  0  0  0  0  0  0  0  0  0  0
    1.3349  -16.5252   10.5220 C   0  0  0  0  0  0  0  0  0  0  0  0
    0.8663  -17.3452    9.5779 N   0  0  0  0  0  0  0  0  0  0  0  0
   -0.4029  -16.9700    9.4394 N   0  0  0  0  0  0  0  0  0  0  0  0
   -1.1328  -17.3547    8.1508 C   0  0  0  0  0  0  0  0  0  0  0  0
   -0.9962  -18.7904    7.5324 C   0  0  0  0  0  0  0  0  0  0  0  0
   -2.4089  -19.2480    7.1230 C   0  0  0  0  0  0  0  0  0  0  0  0
   -3.3792  -18.3953    7.9160 C   0  0  0  0  0  0  0  0  0  0  0  0
   -2.6531  -17.0611    8.0734 C   0  0  0  0  0  0  0  0  0  0  0  0
   -0.6925  -15.9463   10.4240 C   0  0  0  0  0  0  0  0  0  0  0  0
   -0.6093   -9.9277   10.8115 H   0  0  0  0  0  0  0  0  0  0  0  0
    0.1569  -11.0088   10.8875 H   0  0  0  0  0  0  0  0  0  0  0  0
   -0.1184   -9.5280   12.1185 H   0  0  0  0  0  0  0  0  0  0  0  0
    0.5454   -8.2814   10.7907 H   0  0  0  0  0  0  0  0  0  0  0  0
    1.8355   -9.5729    9.9075 H   0  0  0  0  0  0  0  0  0  0  0  0
    4.0249   -9.7579   12.4708 H   0  0  0  0  0  0  0  0  0  0  0  0
    4.9863   -7.5728   13.3285 H   0  0  0  0  0  0  0  0  0  0  0  0
    3.6501   -5.5548   12.5217 H   0  0  0  0  0  0  0  0  0  0  0  0
    1.2749  -13.4747   11.0603 H   0  0  0  0  0  0  0  0  0  0  0  0
    2.3941  -16.6634   10.6357 H   0  0  0  0  0  0  0  0  0  0  0  0
   -0.6248  -16.7272    7.4033 H   0  0  0  0  0  0  0  0  0  0  0  0
   -0.3668  -18.7422    6.6340 H   0  0  0  0  0  0  0  0  0  0  0  0
   -0.4986  -19.5209    8.1770 H   0  0  0  0  0  0  0  0  0  0  0  0
   -2.5572  -20.3176    7.3002 H   0  0  0  0  0  0  0  0  0  0  0  0
   -2.5495  -19.0675    6.0505 H   0  0  0  0  0  0  0  0  0  0  0  0
   -4.3398  -18.2807    7.4047 H   0  0  0  0  0  0  0  0  0  0  0  0
   -3.5756  -18.8681    8.8767 H   0  0  0  0  0  0  0  0  0  0  0  0
   -3.0107  -16.4702    8.9086 H   0  0  0  0  0  0  0  0  0  0  0  0
   -2.8419  -16.4682    7.1690 H   0  0  0  0  0  0  0  0  0  0  0  0
   -1.6427  -15.4250   10.3632 H   0  0  0  0  0  0  0  0  0  0  0  0
  1  2  1  0
  2  3  1  0
  3  4  1  0
  4  5  2  0
  5  6  1  0
  6  7  1  0
  7  8  2  0
  2  9  1  0
  9 10  2  0
  9 11  1  0
 11 12  2  0
 11 13  1  0
 13 14  1  0
 14 15  1  0
 15 16  2  0
 16 17  1  0
 17 18  1  0
 18 19  1  0
 19 20  1  0
 20 21  1  0
 21 22  1  0
 17 23  1  0
  8  4  1  0
 23 14  2  0
 22 18  1  0
  1 24  1  0
  1 25  1  0
  1 26  1  0
  3 27  1  0
  3 28  1  0
  5 29  1  0
  6 30  1  0
  7 31  1  0
 13 32  1  0
 15 33  1  0
 18 34  1  0
 19 35  1  0
 19 36  1  0
 20 37  1  0
 20 38  1  0
 21 39  1  0
 21 40  1  0
 22 41  1  0
 22 42  1  0
 23 43  1  0
M  END
>  <Energy>  (178) 
736.27925593592408

>  <compound_id>  (178) 
48743

>  <target_id>  (178) 
1

>  <reference_id>  (178) 
63

>  <inspiration_ids>  (178) 
[112, 63]

>  <energy_score>  (178) 
627.5252032102745

>  <distance_score>  (178) 
14.123423832141738

>  <path>  (178) 
/opt/xchem-fragalysis-2/maxwin/BulkDock/SCRATCH/511024/C48743-P63/C48743-P63.minimised.mol

>  <scratch_subdir>  (178) 
/opt/xchem-fragalysis-2/maxwin/BulkDock/SCRATCH/511024/C48743-P63

>  <fragmenstein_runtime>  (178) 
24.089399337768555

>  <fragmenstein_outcome>  (178) 
too moved

>  <fragmenstein_mode>  (178) 
expansion

>  <fragmenstein_error>  (178) 


$$$$
C48744-P112
     RDKit          3D

 50 53  0  0  0  0  0  0  0  0999 V2000
   -0.4010  -16.5813   10.2236 C   0  0  0  0  0  0  0  0  0  0  0  0
   -1.3452  -17.1337    9.2734 C   0  0  0  0  0  0  0  0  0  0  0  0
   -2.5539  -16.3443    9.3381 N   0  0  0  0  0  0  0  0  0  0  0  0
   -3.8043  -16.7200    8.6407 C   0  0  0  0  0  0  0  0  0  0  0  0
   -4.1434  -18.2363    8.6462 C   0  0  0  0  0  0  0  0  0  0  0  0
   -5.6274  -18.3369    8.3136 C   0  0  0  0  0  0  0  0  0  0  0  0
   -6.2243  -17.1732    9.0723 C   0  0  0  0  0  0  0  0  0  0  0  0
   -5.1639  -16.0676    8.9735 C   0  0  0  0  0  0  0  0  0  0  0  0
   -2.3449  -15.2220   10.3229 N   0  0  0  0  0  0  0  0  0  0  0  0
   -0.9989  -15.2913   10.7985 C   0  0  0  0  0  0  0  0  0  0  0  0
   -0.0034  -14.1041   11.7268 C   0  0  0  0  0  0  0  0  0  0  0  0
    0.2917  -12.3473   11.8554 C   0  0  0  0  0  0  0  0  0  0  0  0
    1.2197  -11.0395   11.4573 N   0  0  0  0  0  0  0  0  0  0  0  0
    2.8326  -10.4458   11.6220 C   0  0  0  0  0  0  0  0  0  0  0  0
    3.9513   -9.5828   13.0139 C   0  0  0  0  0  0  0  0  0  0  0  0
    4.9123   -9.4780   14.0197 N   0  0  0  0  0  0  0  0  0  0  0  0
    5.4659   -7.6724   13.9782 C   0  0  0  0  0  0  0  0  0  0  0  0
    4.1325   -7.3106   14.0469 C   0  0  0  0  0  0  0  0  0  0  0  0
    3.9318   -7.8300   12.7829 N   0  0  0  0  0  0  0  0  0  0  0  0
    3.4586   -6.3245   15.3921 C   0  0  0  0  0  0  0  0  0  0  0  0
    4.2671   -5.7955   16.6194 C   0  0  0  0  0  0  0  0  0  0  0  0
    5.7297   -6.2202   16.6595 C   0  0  0  0  0  0  0  0  0  0  0  0
    6.4288   -6.7200   15.2473 C   0  0  0  0  0  0  0  0  0  0  0  0
    0.6121  -16.9234   10.4005 H   0  0  0  0  0  0  0  0  0  0  0  0
   -1.2768  -17.9524    8.5685 H   0  0  0  0  0  0  0  0  0  0  0  0
   -3.5798  -16.4537    7.5979 H   0  0  0  0  0  0  0  0  0  0  0  0
   -3.9739  -18.6721    9.6285 H   0  0  0  0  0  0  0  0  0  0  0  0
   -3.5341  -18.7932    7.9269 H   0  0  0  0  0  0  0  0  0  0  0  0
   -5.7831  -18.2130    7.2360 H   0  0  0  0  0  0  0  0  0  0  0  0
   -6.0523  -19.2942    8.6202 H   0  0  0  0  0  0  0  0  0  0  0  0
   -7.1876  -16.8570    8.6612 H   0  0  0  0  0  0  0  0  0  0  0  0
   -6.3834  -17.4467   10.1212 H   0  0  0  0  0  0  0  0  0  0  0  0
   -5.1650  -15.4999    9.8864 H   0  0  0  0  0  0  0  0  0  0  0  0
   -5.4326  -15.3704    8.1703 H   0  0  0  0  0  0  0  0  0  0  0  0
    0.9639  -14.5886   11.7830 H   0  0  0  0  0  0  0  0  0  0  0  0
   -0.4683  -14.2285   12.6781 H   0  0  0  0  0  0  0  0  0  0  0  0
   -0.6435  -11.9264   11.5370 H   0  0  0  0  0  0  0  0  0  0  0  0
    0.3049  -12.2673   12.9368 H   0  0  0  0  0  0  0  0  0  0  0  0
    0.6918  -10.2436   11.8102 H   0  0  0  0  0  0  0  0  0  0  0  0
    2.3872   -9.5841   11.2922 H   0  0  0  0  0  0  0  0  0  0  0  0
    3.4467  -10.7942   10.7665 H   0  0  0  0  0  0  0  0  0  0  0  0
    3.2336   -7.6318   12.0854 H   0  0  0  0  0  0  0  0  0  0  0  0
    2.8716   -7.0503   15.9716 H   0  0  0  0  0  0  0  0  0  0  0  0
    2.8771   -5.4780   15.0030 H   0  0  0  0  0  0  0  0  0  0  0  0
    3.7706   -6.1238   17.5461 H   0  0  0  0  0  0  0  0  0  0  0  0
    4.1420   -4.7070   16.6876 H   0  0  0  0  0  0  0  0  0  0  0  0
    5.7524   -6.9021   17.4971 H   0  0  0  0  0  0  0  0  0  0  0  0
    6.3645   -5.5037   17.1334 H   0  0  0  0  0  0  0  0  0  0  0  0
    6.8670   -7.6423   15.0786 H   0  0  0  0  0  0  0  0  0  0  0  0
    7.3870   -6.2191   15.1927 H   0  0  0  0  0  0  0  0  0  0  0  0
  1  2  2  0
  2  3  1  0
  3  4  1  0
  4  5  1  0
  5  6  1  0
  6  7  1  0
  7  8  1  0
  3  9  1  0
  9 10  2  0
 10 11  1  0
 11 12  1  0
 12 13  1  0
 13 14  1  0
 14 15  1  0
 15 16  2  0
 16 17  1  0
 17 18  2  0
 18 19  1  0
 18 20  1  0
 20 21  1  0
 21 22  1  0
 22 23  1  0
 10  1  1  0
 19 15  1  0
  8  4  1  0
 23 17  1  0
  1 24  1  0
  2 25  1  0
  4 26  1  0
  5 27  1  0
  5 28  1  0
  6 29  1  0
  6 30  1  0
  7 31  1  0
  7 32  1  0
  8 33  1  0
  8 34  1  0
 11 35  1  0
 11 36  1  0
 12 37  1  0
 12 38  1  0
 13 39  1  0
 14 40  1  0
 14 41  1  0
 19 42  1  0
 20 43  1  0
 20 44  1  0
 21 45  1  0
 21 46  1  0
 22 47  1  0
 22 48  1  0
 23 49  1  0
 23 50  1  0
M  END
>  <Energy>  (179) 
612.97758101416946

>  <compound_id>  (179) 
48744

>  <target_id>  (179) 
1

>  <reference_id>  (179) 
112

>  <inspiration_ids>  (179) 
[112, 63]

>  <energy_score>  (179) 
512.7138644533673

>  <distance_score>  (179) 
12.280594169071941

>  <path>  (179) 
/opt/xchem-fragalysis-2/maxwin/BulkDock/SCRATCH/511024/C48744-P112/C48744-P112.minimised.mol

>  <scratch_subdir>  (179) 
/opt/xchem-fragalysis-2/maxwin/BulkDock/SCRATCH/511024/C48744-P112

>  <fragmenstein_runtime>  (179) 
18.227494716644287

>  <fragmenstein_outcome>  (179) 
too moved

>  <fragmenstein_mode>  (179) 
expansion

>  <fragmenstein_error>  (179) 


$$$$
C48744-P63
     RDKit          3D

 50 53  0  0  0  0  0  0  0  0999 V2000
    0.5211  -22.0029   12.5066 C   0  0  0  0  0  0  0  0  0  0  0  0
   -0.6065  -22.7941   12.5676 C   0  0  0  0  0  0  0  0  0  0  0  0
   -1.0707  -22.9258   11.2865 N   0  0  0  0  0  0  0  0  0  0  0  0
   -2.1888  -23.7699   10.8761 C   0  0  0  0  0  0  0  0  0  0  0  0
   -2.9449  -23.3880    9.6011 C   0  0  0  0  0  0  0  0  0  0  0  0
   -4.1509  -24.3290    9.6220 C   0  0  0  0  0  0  0  0  0  0  0  0
   -4.5123  -24.4991   11.0954 C   0  0  0  0  0  0  0  0  0  0  0  0
   -3.3602  -23.8539   11.8693 C   0  0  0  0  0  0  0  0  0  0  0  0
   -0.2233  -22.3413   10.3862 N   0  0  0  0  0  0  0  0  0  0  0  0
    0.7358  -21.7201   11.1315 C   0  0  0  0  0  0  0  0  0  0  0  0
    1.8475  -20.8365   10.4580 C   0  0  0  0  0  0  0  0  0  0  0  0
    2.7339  -19.8424   11.3380 C   0  0  0  0  0  0  0  0  0  0  0  0
    3.7825  -19.0066   10.5992 N   0  0  0  0  0  0  0  0  0  0  0  0
    4.6716  -18.2087   11.5188 C   0  0  0  0  0  0  0  0  0  0  0  0
    5.6472  -17.1174   10.9229 C   0  0  0  0  0  0  0  0  0  0  0  0
    5.6730  -16.5329    9.7268 N   0  0  0  0  0  0  0  0  0  0  0  0
    6.7485  -15.6618    9.7315 C   0  0  0  0  0  0  0  0  0  0  0  0
    7.3567  -15.6263   10.9575 C   0  0  0  0  0  0  0  0  0  0  0  0
    6.6513  -16.5407   11.7043 N   0  0  0  0  0  0  0  0  0  0  0  0
    8.6060  -14.8978   11.3294 C   0  0  0  0  0  0  0  0  0  0  0  0
    9.2113  -14.1528   10.1164 C   0  0  0  0  0  0  0  0  0  0  0  0
    8.8184  -14.7438    8.7383 C   0  0  0  0  0  0  0  0  0  0  0  0
    7.2949  -14.9515    8.5515 C   0  0  0  0  0  0  0  0  0  0  0  0
    1.1103  -21.6606   13.3466 H   0  0  0  0  0  0  0  0  0  0  0  0
   -1.1075  -23.2565   13.4038 H   0  0  0  0  0  0  0  0  0  0  0  0
   -1.7519  -24.7706   10.7489 H   0  0  0  0  0  0  0  0  0  0  0  0
   -2.3397  -23.5252    8.6996 H   0  0  0  0  0  0  0  0  0  0  0  0
   -3.2694  -22.3406    9.6350 H   0  0  0  0  0  0  0  0  0  0  0  0
   -4.9687  -23.9574    9.0069 H   0  0  0  0  0  0  0  0  0  0  0  0
   -3.8606  -25.3026    9.2074 H   0  0  0  0  0  0  0  0  0  0  0  0
   -5.4682  -24.0382   11.3509 H   0  0  0  0  0  0  0  0  0  0  0  0
   -4.5933  -25.5642   11.3400 H   0  0  0  0  0  0  0  0  0  0  0  0
   -3.0984  -24.4320   12.7597 H   0  0  0  0  0  0  0  0  0  0  0  0
   -3.6430  -22.8436   12.1851 H   0  0  0  0  0  0  0  0  0  0  0  0
    2.5276  -21.5280    9.9442 H   0  0  0  0  0  0  0  0  0  0  0  0
    1.3505  -20.2377    9.6835 H   0  0  0  0  0  0  0  0  0  0  0  0
    2.0610  -19.1565   11.8663 H   0  0  0  0  0  0  0  0  0  0  0  0
    3.2557  -20.4435   12.0919 H   0  0  0  0  0  0  0  0  0  0  0  0
    3.3040  -18.3363    9.9952 H   0  0  0  0  0  0  0  0  0  0  0  0
    5.3030  -18.9238   12.0608 H   0  0  0  0  0  0  0  0  0  0  0  0
    4.0471  -17.6993   12.2588 H   0  0  0  0  0  0  0  0  0  0  0  0
    6.8301  -16.7501   12.6802 H   0  0  0  0  0  0  0  0  0  0  0  0
    9.3378  -15.6248   11.7017 H   0  0  0  0  0  0  0  0  0  0  0  0
    8.4217  -14.1757   12.1299 H   0  0  0  0  0  0  0  0  0  0  0  0
    8.9168  -13.0998   10.1440 H   0  0  0  0  0  0  0  0  0  0  0  0
   10.3042  -14.1457   10.2106 H   0  0  0  0  0  0  0  0  0  0  0  0
    9.3246  -15.7118    8.6247 H   0  0  0  0  0  0  0  0  0  0  0  0
    9.1974  -14.0948    7.9405 H   0  0  0  0  0  0  0  0  0  0  0  0
    6.7960  -13.9834    8.4391 H   0  0  0  0  0  0  0  0  0  0  0  0
    7.1122  -15.5276    7.6381 H   0  0  0  0  0  0  0  0  0  0  0  0
  1  2  2  0
  2  3  1  0
  3  4  1  0
  4  5  1  0
  5  6  1  0
  6  7  1  0
  7  8  1  0
  3  9  1  0
  9 10  2  0
 10 11  1  0
 11 12  1  0
 12 13  1  0
 13 14  1  0
 14 15  1  0
 15 16  2  0
 16 17  1  0
 17 18  2  0
 18 19  1  0
 18 20  1  0
 20 21  1  0
 21 22  1  0
 22 23  1  0
 10  1  1  0
 19 15  1  0
  8  4  1  0
 23 17  1  0
  1 24  1  0
  2 25  1  0
  4 26  1  0
  5 27  1  0
  5 28  1  0
  6 29  1  0
  6 30  1  0
  7 31  1  0
  7 32  1  0
  8 33  1  0
  8 34  1  0
 11 35  1  0
 11 36  1  0
 12 37  1  0
 12 38  1  0
 13 39  1  0
 14 40  1  0
 14 41  1  0
 19 42  1  0
 20 43  1  0
 20 44  1  0
 21 45  1  0
 21 46  1  0
 22 47  1  0
 22 48  1  0
 23 49  1  0
 23 50  1  0
M  END
>  <Energy>  (180) 
60.844157202673578

>  <compound_id>  (180) 
48744

>  <target_id>  (180) 
1

>  <reference_id>  (180) 
63

>  <inspiration_ids>  (180) 
[112, 63]

>  <energy_score>  (180) 
-39.419559358130755

>  <distance_score>  (180) 
13.277019002325872

>  <path>  (180) 
/opt/xchem-fragalysis-2/maxwin/BulkDock/SCRATCH/511024/C48744-P63/C48744-P63.minimised.mol

>  <scratch_subdir>  (180) 
/opt/xchem-fragalysis-2/maxwin/BulkDock/SCRATCH/511024/C48744-P63

>  <fragmenstein_runtime>  (180) 
19.756115198135376

>  <fragmenstein_outcome>  (180) 
too moved

>  <fragmenstein_mode>  (180) 
expansion

>  <fragmenstein_error>  (180) 


$$$$
C48745-P112
     RDKit          3D

 39 41  0  0  0  0  0  0  0  0999 V2000
   -0.8275  -10.4648   11.5789 C   0  0  0  0  0  0  0  0  0  0  0  0
   -0.0918  -11.4952   12.5112 N   0  0  0  0  0  0  0  0  0  0  0  0
    0.7794  -10.1334   12.8546 C   0  0  0  0  0  0  0  0  0  0  0  0
    2.0805   -9.7964   13.6204 C   0  0  0  0  0  0  0  0  0  0  0  0
    2.4354   -9.7809   14.9587 C   0  0  0  0  0  0  0  0  0  0  0  0
    3.6653   -9.1624   15.0412 N   0  0  0  0  0  0  0  0  0  0  0  0
    4.0018   -8.7352   13.7946 C   0  0  0  0  0  0  0  0  0  0  0  0
    3.0704   -9.0650   12.9295 N   0  0  0  0  0  0  0  0  0  0  0  0
    0.2964  -12.8940   11.6763 C   0  0  0  0  0  0  0  0  0  0  0  0
    1.3298  -12.9395   11.1503 O   0  0  0  0  0  0  0  0  0  0  0  0
   -0.5044  -14.4618   11.5224 C   0  0  0  0  0  0  0  0  0  0  0  0
    0.3905  -15.6454   11.2706 C   0  0  0  0  0  0  0  0  0  0  0  0
    0.1419  -16.7016   10.4838 N   0  0  0  0  0  0  0  0  0  0  0  0
   -1.0650  -16.4571   10.0071 N   0  0  0  0  0  0  0  0  0  0  0  0
   -1.8265  -17.1214    8.7020 C   0  0  0  0  0  0  0  0  0  0  0  0
   -0.8310  -17.5732    7.5934 C   0  0  0  0  0  0  0  0  0  0  0  0
   -1.6705  -18.3434    6.5731 C   0  0  0  0  0  0  0  0  0  0  0  0
   -2.5978  -19.1663    7.4240 C   0  0  0  0  0  0  0  0  0  0  0  0
   -2.9736  -18.2003    8.5395 C   0  0  0  0  0  0  0  0  0  0  0  0
   -1.5438  -15.0998   10.7738 C   0  0  0  0  0  0  0  0  0  0  0  0
   -0.9834   -9.4460   11.9783 H   0  0  0  0  0  0  0  0  0  0  0  0
   -0.3011  -10.3775   10.6298 H   0  0  0  0  0  0  0  0  0  0  0  0
   -1.8650  -10.6184   11.3714 H   0  0  0  0  0  0  0  0  0  0  0  0
    0.0824   -9.5104   13.4412 H   0  0  0  0  0  0  0  0  0  0  0  0
    1.0762   -9.6948   11.8857 H   0  0  0  0  0  0  0  0  0  0  0  0
    1.9590  -10.1493   15.8502 H   0  0  0  0  0  0  0  0  0  0  0  0
    4.2174   -9.0378   15.8782 H   0  0  0  0  0  0  0  0  0  0  0  0
    4.9206   -8.2045   13.5790 H   0  0  0  0  0  0  0  0  0  0  0  0
    1.3941  -15.6345   11.5389 H   0  0  0  0  0  0  0  0  0  0  0  0
   -2.4191  -16.2569    8.3796 H   0  0  0  0  0  0  0  0  0  0  0  0
   -0.3164  -16.7447    7.0981 H   0  0  0  0  0  0  0  0  0  0  0  0
   -0.0525  -18.2262    8.0044 H   0  0  0  0  0  0  0  0  0  0  0  0
   -1.0504  -18.9605    5.9165 H   0  0  0  0  0  0  0  0  0  0  0  0
   -2.2378  -17.6430    5.9486 H   0  0  0  0  0  0  0  0  0  0  0  0
   -3.4698  -19.5271    6.8705 H   0  0  0  0  0  0  0  0  0  0  0  0
   -2.0704  -20.0384    7.8275 H   0  0  0  0  0  0  0  0  0  0  0  0
   -3.1924  -18.8103    9.3899 H   0  0  0  0  0  0  0  0  0  0  0  0
   -3.8818  -17.7067    8.1859 H   0  0  0  0  0  0  0  0  0  0  0  0
   -2.5041  -14.8942   10.3652 H   0  0  0  0  0  0  0  0  0  0  0  0
  1  2  1  0
  2  3  1  0
  3  4  1  0
  4  5  2  0
  5  6  1  0
  6  7  1  0
  7  8  2  0
  2  9  1  0
  9 10  2  0
  9 11  1  0
 11 12  1  0
 12 13  2  0
 13 14  1  0
 14 15  1  0
 15 16  1  0
 16 17  1  0
 17 18  1  0
 18 19  1  0
 14 20  1  0
  8  4  1  0
 20 11  2  0
 19 15  1  0
  1 21  1  0
  1 22  1  0
  1 23  1  0
  3 24  1  0
  3 25  1  0
  5 26  1  0
  6 27  1  0
  7 28  1  0
 12 29  1  0
 15 30  1  0
 16 31  1  0
 16 32  1  0
 17 33  1  0
 17 34  1  0
 18 35  1  0
 18 36  1  0
 19 37  1  0
 19 38  1  0
 20 39  1  0
M  END
>  <Energy>  (181) 
302.8031902537474

>  <compound_id>  (181) 
48745

>  <target_id>  (181) 
1

>  <reference_id>  (181) 
112

>  <inspiration_ids>  (181) 
[112, 63]

>  <energy_score>  (181) 
259.38940575826297

>  <distance_score>  (181) 
14.305626289697907

>  <path>  (181) 
/opt/xchem-fragalysis-2/maxwin/BulkDock/SCRATCH/511024/C48745-P112/C48745-P112.minimised.mol

>  <scratch_subdir>  (181) 
/opt/xchem-fragalysis-2/maxwin/BulkDock/SCRATCH/511024/C48745-P112

>  <fragmenstein_runtime>  (181) 
10.92556118965149

>  <fragmenstein_outcome>  (181) 
too moved

>  <fragmenstein_mode>  (181) 
expansion

>  <fragmenstein_error>  (181) 


$$$$
C48745-P63
     RDKit          3D

 39 41  0  0  0  0  0  0  0  0999 V2000
    2.7999  -20.9783   14.5696 C   0  0  0  0  0  0  0  0  0  0  0  0
    2.4020  -19.5592   14.5403 N   0  0  0  0  0  0  0  0  0  0  0  0
    3.9725  -19.3526   14.7058 C   0  0  0  0  0  0  0  0  0  0  0  0
    4.5116  -18.0524   15.4102 C   0  0  0  0  0  0  0  0  0  0  0  0
    4.1562  -17.4630   16.6121 C   0  0  0  0  0  0  0  0  0  0  0  0
    5.1383  -16.5496   16.9116 N   0  0  0  0  0  0  0  0  0  0  0  0
    6.0587  -16.5798   15.9042 C   0  0  0  0  0  0  0  0  0  0  0  0
    5.7099  -17.4478   14.9801 N   0  0  0  0  0  0  0  0  0  0  0  0
    1.5064  -19.3006   13.3724 C   0  0  0  0  0  0  0  0  0  0  0  0
    1.7745  -18.9569   12.2427 O   0  0  0  0  0  0  0  0  0  0  0  0
   -0.0021  -19.4767   13.5695 C   0  0  0  0  0  0  0  0  0  0  0  0
   -1.5538  -19.2955   14.2616 C   0  0  0  0  0  0  0  0  0  0  0  0
   -2.4746  -20.5861   13.9202 N   0  0  0  0  0  0  0  0  0  0  0  0
   -2.9055  -20.3179   12.6876 N   0  0  0  0  0  0  0  0  0  0  0  0
   -3.9300  -21.0984   11.7214 C   0  0  0  0  0  0  0  0  0  0  0  0
   -4.1308  -20.7076    9.9902 C   0  0  0  0  0  0  0  0  0  0  0  0
   -3.9617  -22.0344    9.1784 C   0  0  0  0  0  0  0  0  0  0  0  0
   -3.8897  -23.2028   10.1563 C   0  0  0  0  0  0  0  0  0  0  0  0
   -3.9530  -22.7243   11.6183 C   0  0  0  0  0  0  0  0  0  0  0  0
   -0.9045  -19.9122   12.7540 C   0  0  0  0  0  0  0  0  0  0  0  0
    3.4475  -21.2999   13.7389 H   0  0  0  0  0  0  0  0  0  0  0  0
    1.8941  -21.5421   14.4093 H   0  0  0  0  0  0  0  0  0  0  0  0
    3.1114  -21.3248   15.5666 H   0  0  0  0  0  0  0  0  0  0  0  0
    4.3797  -19.3147   13.6831 H   0  0  0  0  0  0  0  0  0  0  0  0
    4.5240  -20.1075   15.2956 H   0  0  0  0  0  0  0  0  0  0  0  0
    3.3339  -17.6633   17.2839 H   0  0  0  0  0  0  0  0  0  0  0  0
    5.1840  -15.9846   17.7486 H   0  0  0  0  0  0  0  0  0  0  0  0
    6.9506  -15.9679   15.8984 H   0  0  0  0  0  0  0  0  0  0  0  0
   -1.7736  -18.6452   15.1178 H   0  0  0  0  0  0  0  0  0  0  0  0
   -4.7150  -20.8039   12.4134 H   0  0  0  0  0  0  0  0  0  0  0  0
   -3.4363  -19.9561    9.6056 H   0  0  0  0  0  0  0  0  0  0  0  0
   -5.0119  -20.2258    9.6322 H   0  0  0  0  0  0  0  0  0  0  0  0
   -3.0321  -21.9914    8.5930 H   0  0  0  0  0  0  0  0  0  0  0  0
   -4.7310  -22.1707    8.4152 H   0  0  0  0  0  0  0  0  0  0  0  0
   -4.6839  -23.9301    9.9558 H   0  0  0  0  0  0  0  0  0  0  0  0
   -2.9491  -23.7449    9.9968 H   0  0  0  0  0  0  0  0  0  0  0  0
   -4.9012  -23.1172   11.9930 H   0  0  0  0  0  0  0  0  0  0  0  0
   -3.1820  -23.2439   12.1941 H   0  0  0  0  0  0  0  0  0  0  0  0
   -0.2801  -19.9677   11.8221 H   0  0  0  0  0  0  0  0  0  0  0  0
  1  2  1  0
  2  3  1  0
  3  4  1  0
  4  5  2  0
  5  6  1  0
  6  7  1  0
  7  8  2  0
  2  9  1  0
  9 10  2  0
  9 11  1  0
 11 12  1  0
 12 13  2  0
 13 14  1  0
 14 15  1  0
 15 16  1  0
 16 17  1  0
 17 18  1  0
 18 19  1  0
 14 20  1  0
  8  4  1  0
 20 11  2  0
 19 15  1  0
  1 21  1  0
  1 22  1  0
  1 23  1  0
  3 24  1  0
  3 25  1  0
  5 26  1  0
  6 27  1  0
  7 28  1  0
 12 29  1  0
 15 30  1  0
 16 31  1  0
 16 32  1  0
 17 33  1  0
 17 34  1  0
 18 35  1  0
 18 36  1  0
 19 37  1  0
 19 38  1  0
 20 39  1  0
M  END
>  <Energy>  (182) 
528.53893878527026

>  <compound_id>  (182) 
48745

>  <target_id>  (182) 
1

>  <reference_id>  (182) 
63

>  <inspiration_ids>  (182) 
[112, 63]

>  <energy_score>  (182) 
485.1251542897816

>  <distance_score>  (182) 
14.101011888281736

>  <path>  (182) 
/opt/xchem-fragalysis-2/maxwin/BulkDock/SCRATCH/511024/C48745-P63/C48745-P63.minimised.mol

>  <scratch_subdir>  (182) 
/opt/xchem-fragalysis-2/maxwin/BulkDock/SCRATCH/511024/C48745-P63

>  <fragmenstein_runtime>  (182) 
12.98129415512085

>  <fragmenstein_outcome>  (182) 
too moved

>  <fragmenstein_mode>  (182) 
expansion

>  <fragmenstein_error>  (182) 


$$$$
C17992-P112
     RDKit          3D

 45 47  0  0  0  0  0  0  0  0999 V2000
    1.1226  -20.6169    7.3371 C   0  0  0  0  0  0  0  0  0  0  0  0
    1.9227  -19.3564    7.6921 C   0  0  0  0  0  0  0  0  0  0  0  0
    1.7822  -18.3307    6.5600 C   0  0  0  0  0  0  0  0  0  0  0  0
    1.5111  -18.8025    9.0890 C   0  0  0  0  0  0  0  0  0  0  0  0
    0.1297  -18.3434    9.0781 N   0  0  0  0  0  0  0  0  0  0  0  0
   -1.0251  -18.8166    9.7894 C   0  0  0  0  0  0  0  0  0  0  0  0
   -1.1290  -19.6549   10.6306 O   0  0  0  0  0  0  0  0  0  0  0  0
   -2.2939  -18.2086    9.3017 C   0  0  0  0  0  0  0  0  0  0  0  0
   -2.5865  -17.5324    8.1242 C   0  0  0  0  0  0  0  0  0  0  0  0
   -3.9630  -17.2586    8.1398 C   0  0  0  0  0  0  0  0  0  0  0  0
   -4.5515  -17.7416    9.2212 N   0  0  0  0  0  0  0  0  0  0  0  0
   -3.5583  -18.3899    9.8695 N   0  0  0  0  0  0  0  0  0  0  0  0
   -3.9553  -19.3834   10.8417 C   0  0  0  0  0  0  0  0  0  0  0  0
   -3.9796  -20.7525   10.1776 C   0  0  0  0  0  0  0  0  0  0  0  0
   -4.8039  -21.5941   11.1096 C   0  0  0  0  0  0  0  0  0  0  0  0
   -5.6443  -20.6179   11.9539 C   0  0  0  0  0  0  0  0  0  0  0  0
   -5.3807  -19.2406   11.3932 C   0  0  0  0  0  0  0  0  0  0  0  0
    2.5639  -17.8654    9.6634 C   0  0  0  0  0  0  0  0  0  0  0  0
    3.6422  -17.4056    9.0466 N   0  0  0  0  0  0  0  0  0  0  0  0
    4.6244  -17.3419   10.0111 C   0  0  0  0  0  0  0  0  0  0  0  0
    4.1022  -17.6061   11.2424 C   0  0  0  0  0  0  0  0  0  0  0  0
    2.7590  -17.7701   11.0172 N   0  0  0  0  0  0  0  0  0  0  0  0
    1.2329  -21.3804    8.1142 H   0  0  0  0  0  0  0  0  0  0  0  0
    1.4809  -21.0478    6.3959 H   0  0  0  0  0  0  0  0  0  0  0  0
    0.0556  -20.4006    7.2200 H   0  0  0  0  0  0  0  0  0  0  0  0
    2.9786  -19.6569    7.7372 H   0  0  0  0  0  0  0  0  0  0  0  0
    0.7354  -18.0681    6.3762 H   0  0  0  0  0  0  0  0  0  0  0  0
    2.3295  -17.4093    6.7754 H   0  0  0  0  0  0  0  0  0  0  0  0
    2.1847  -18.7393    5.6264 H   0  0  0  0  0  0  0  0  0  0  0  0
    1.5096  -19.6679    9.7687 H   0  0  0  0  0  0  0  0  0  0  0  0
   -0.1636  -17.6834    8.3790 H   0  0  0  0  0  0  0  0  0  0  0  0
   -1.9061  -17.2725    7.3263 H   0  0  0  0  0  0  0  0  0  0  0  0
   -4.5571  -16.7317    7.4038 H   0  0  0  0  0  0  0  0  0  0  0  0
   -3.2504  -19.3444   11.6799 H   0  0  0  0  0  0  0  0  0  0  0  0
   -4.4185  -20.6975    9.1819 H   0  0  0  0  0  0  0  0  0  0  0  0
   -2.9813  -21.1793   10.0392 H   0  0  0  0  0  0  0  0  0  0  0  0
   -4.0713  -22.1400   11.7017 H   0  0  0  0  0  0  0  0  0  0  0  0
   -5.3630  -22.3609   10.5772 H   0  0  0  0  0  0  0  0  0  0  0  0
   -5.2830  -20.5794   12.9810 H   0  0  0  0  0  0  0  0  0  0  0  0
   -6.7059  -20.8611   12.0033 H   0  0  0  0  0  0  0  0  0  0  0  0
   -6.1241  -19.0007   10.6291 H   0  0  0  0  0  0  0  0  0  0  0  0
   -5.4405  -18.4588   12.1578 H   0  0  0  0  0  0  0  0  0  0  0  0
    5.6467  -17.1292    9.7333 H   0  0  0  0  0  0  0  0  0  0  0  0
    4.5011  -17.6791   12.2431 H   0  0  0  0  0  0  0  0  0  0  0  0
    2.0753  -17.9517   11.7475 H   0  0  0  0  0  0  0  0  0  0  0  0
  1  2  1  0
  2  3  1  0
  2  4  1  0
  4  5  1  0
  5  6  1  0
  6  7  2  0
  6  8  1  0
  8  9  2  0
  9 10  1  0
 10 11  2  0
 11 12  1  0
 12 13  1  0
 13 14  1  0
 14 15  1  0
 15 16  1  0
 16 17  1  0
  4 18  1  0
 18 19  2  0
 19 20  1  0
 20 21  2  0
 21 22  1  0
 12  8  1  0
 17 13  1  0
 22 18  1  0
  1 23  1  0
  1 24  1  0
  1 25  1  0
  2 26  1  0
  3 27  1  0
  3 28  1  0
  3 29  1  0
  4 30  1  0
  5 31  1  0
  9 32  1  0
 10 33  1  0
 13 34  1  0
 14 35  1  0
 14 36  1  0
 15 37  1  0
 15 38  1  0
 16 39  1  0
 16 40  1  0
 17 41  1  0
 17 42  1  0
 20 43  1  0
 21 44  1  0
 22 45  1  0
M  END
>  <Energy>  (183) 
1.6115337041775417

>  <compound_id>  (183) 
17992

>  <target_id>  (183) 
1

>  <reference_id>  (183) 
112

>  <inspiration_ids>  (183) 
[112, 63]

>  <energy_score>  (183) 
-16.05716846079254

>  <distance_score>  (183) 
14.121292538352346

>  <path>  (183) 
/opt/xchem-fragalysis-2/maxwin/BulkDock/SCRATCH/511024/C17992-P112/C17992-P112.minimised.mol

>  <scratch_subdir>  (183) 
/opt/xchem-fragalysis-2/maxwin/BulkDock/SCRATCH/511024/C17992-P112

>  <fragmenstein_runtime>  (183) 
20.538352727890015

>  <fragmenstein_outcome>  (183) 
too moved

>  <fragmenstein_mode>  (183) 
expansion

>  <fragmenstein_error>  (183) 


$$$$
C17992-P63
     RDKit          3D

 45 47  0  0  0  0  0  0  0  0999 V2000
    3.3914  -11.3270    9.1119 C   0  0  0  0  0  0  0  0  0  0  0  0
    2.9231  -12.5565    9.8042 C   0  0  0  0  0  0  0  0  0  0  0  0
    4.0020  -13.5575    9.9608 C   0  0  0  0  0  0  0  0  0  0  0  0
    1.9999  -12.2047   11.0301 C   0  0  0  0  0  0  0  0  0  0  0  0
    0.7065  -13.5098   11.5557 N   0  0  0  0  0  0  0  0  0  0  0  0
    0.5307  -15.1809   11.1074 C   0  0  0  0  0  0  0  0  0  0  0  0
    1.2959  -15.8255   10.4178 O   0  0  0  0  0  0  0  0  0  0  0  0
   -0.7374  -16.0505   11.4455 C   0  0  0  0  0  0  0  0  0  0  0  0
   -0.4601  -17.4216   11.7776 C   0  0  0  0  0  0  0  0  0  0  0  0
   -0.9278  -18.1820   10.6665 C   0  0  0  0  0  0  0  0  0  0  0  0
   -1.6606  -17.4210    9.8454 N   0  0  0  0  0  0  0  0  0  0  0  0
   -2.0279  -16.4163   10.7063 N   0  0  0  0  0  0  0  0  0  0  0  0
   -3.3776  -16.7374   11.3284 C   0  0  0  0  0  0  0  0  0  0  0  0
   -4.2244  -17.8828   10.6683 C   0  0  0  0  0  0  0  0  0  0  0  0
   -5.6829  -17.6574   11.0979 C   0  0  0  0  0  0  0  0  0  0  0  0
   -5.7035  -16.3211   11.8123 C   0  0  0  0  0  0  0  0  0  0  0  0
   -4.4315  -15.6215   11.3340 C   0  0  0  0  0  0  0  0  0  0  0  0
    2.8975  -10.7399   11.7696 C   0  0  0  0  0  0  0  0  0  0  0  0
    2.8844   -9.5892   11.1204 N   0  0  0  0  0  0  0  0  0  0  0  0
    3.4782   -8.2524   11.8246 C   0  0  0  0  0  0  0  0  0  0  0  0
    4.1475   -8.6787   13.1709 C   0  0  0  0  0  0  0  0  0  0  0  0
    3.9110  -10.3342   13.1554 N   0  0  0  0  0  0  0  0  0  0  0  0
    3.8067  -10.5723    9.7280 H   0  0  0  0  0  0  0  0  0  0  0  0
    4.2909  -11.4888    8.5914 H   0  0  0  0  0  0  0  0  0  0  0  0
    2.6391  -10.9330    8.4425 H   0  0  0  0  0  0  0  0  0  0  0  0
    2.4219  -13.0417    8.9987 H   0  0  0  0  0  0  0  0  0  0  0  0
    4.4302  -13.4970   10.9388 H   0  0  0  0  0  0  0  0  0  0  0  0
    4.8573  -13.3623    9.3722 H   0  0  0  0  0  0  0  0  0  0  0  0
    3.6841  -14.5517    9.6264 H   0  0  0  0  0  0  0  0  0  0  0  0
    1.1672  -11.4694   11.0993 H   0  0  0  0  0  0  0  0  0  0  0  0
   -0.1122  -13.2129   12.0599 H   0  0  0  0  0  0  0  0  0  0  0  0
    0.3746  -17.7602   12.3764 H   0  0  0  0  0  0  0  0  0  0  0  0
   -0.6734  -19.1958   10.3858 H   0  0  0  0  0  0  0  0  0  0  0  0
   -3.1687  -17.0863   12.3467 H   0  0  0  0  0  0  0  0  0  0  0  0
   -3.8705  -18.8727   10.9762 H   0  0  0  0  0  0  0  0  0  0  0  0
   -4.1691  -17.8360    9.5736 H   0  0  0  0  0  0  0  0  0  0  0  0
   -6.0485  -18.4617   11.7421 H   0  0  0  0  0  0  0  0  0  0  0  0
   -6.3292  -17.6000   10.2163 H   0  0  0  0  0  0  0  0  0  0  0  0
   -5.6604  -16.4740   12.8972 H   0  0  0  0  0  0  0  0  0  0  0  0
   -6.6037  -15.7411   11.5886 H   0  0  0  0  0  0  0  0  0  0  0  0
   -4.5711  -15.2196   10.3227 H   0  0  0  0  0  0  0  0  0  0  0  0
   -4.1956  -14.7884   11.9944 H   0  0  0  0  0  0  0  0  0  0  0  0
    3.3510   -7.2584   11.4690 H   0  0  0  0  0  0  0  0  0  0  0  0
    4.9016   -8.2097   13.7445 H   0  0  0  0  0  0  0  0  0  0  0  0
    4.2473  -10.9459   13.8867 H   0  0  0  0  0  0  0  0  0  0  0  0
  1  2  1  0
  2  3  1  0
  2  4  1  0
  4  5  1  0
  5  6  1  0
  6  7  2  0
  6  8  1  0
  8  9  2  0
  9 10  1  0
 10 11  2  0
 11 12  1  0
 12 13  1  0
 13 14  1  0
 14 15  1  0
 15 16  1  0
 16 17  1  0
  4 18  1  0
 18 19  2  0
 19 20  1  0
 20 21  2  0
 21 22  1  0
 12  8  1  0
 17 13  1  0
 22 18  1  0
  1 23  1  0
  1 24  1  0
  1 25  1  0
  2 26  1  0
  3 27  1  0
  3 28  1  0
  3 29  1  0
  4 30  1  0
  5 31  1  0
  9 32  1  0
 10 33  1  0
 13 34  1  0
 14 35  1  0
 14 36  1  0
 15 37  1  0
 15 38  1  0
 16 39  1  0
 16 40  1  0
 17 41  1  0
 17 42  1  0
 20 43  1  0
 21 44  1  0
 22 45  1  0
M  END
>  <Energy>  (184) 
388.91130568122389

>  <compound_id>  (184) 
17992

>  <target_id>  (184) 
1

>  <reference_id>  (184) 
63

>  <inspiration_ids>  (184) 
[112, 63]

>  <energy_score>  (184) 
371.242603516254

>  <distance_score>  (184) 
13.085808778688104

>  <path>  (184) 
/opt/xchem-fragalysis-2/maxwin/BulkDock/SCRATCH/511024/C17992-P63/C17992-P63.minimised.mol

>  <scratch_subdir>  (184) 
/opt/xchem-fragalysis-2/maxwin/BulkDock/SCRATCH/511024/C17992-P63

>  <fragmenstein_runtime>  (184) 
17.590160131454468

>  <fragmenstein_outcome>  (184) 
too moved

>  <fragmenstein_mode>  (184) 
expansion

>  <fragmenstein_error>  (184) 


$$$$
C17993-P112
     RDKit          3D

 36 38  0  0  0  0  0  0  0  0999 V2000
    2.3388  -20.4306   10.0707 O   0  0  0  0  0  0  0  0  0  0  0  0
    2.1516  -19.7663   11.0507 C   0  0  0  0  0  0  0  0  0  0  0  0
    3.0274  -18.8110   11.7336 N   0  0  0  0  0  0  0  0  0  0  0  0
    4.3608  -18.3024   11.3748 C   0  0  0  0  0  0  0  0  0  0  0  0
    5.2128  -17.3487   12.2267 C   0  0  0  0  0  0  0  0  0  0  0  0
    5.5552  -17.4110   13.5045 N   0  0  0  0  0  0  0  0  0  0  0  0
    6.5917  -16.5190   13.6965 C   0  0  0  0  0  0  0  0  0  0  0  0
    6.8598  -15.8317   12.5422 C   0  0  0  0  0  0  0  0  0  0  0  0
    6.0073  -16.3785   11.6170 N   0  0  0  0  0  0  0  0  0  0  0  0
    0.7366  -20.0126   11.6514 C   0  0  0  0  0  0  0  0  0  0  0  0
    0.3033  -20.2200   12.9960 C   0  0  0  0  0  0  0  0  0  0  0  0
   -1.0137  -20.6554   12.9307 C   0  0  0  0  0  0  0  0  0  0  0  0
   -1.3405  -20.7059   11.6060 N   0  0  0  0  0  0  0  0  0  0  0  0
   -2.5937  -21.1068   10.9722 C   0  0  0  0  0  0  0  0  0  0  0  0
   -2.9702  -22.5881   11.0661 C   0  0  0  0  0  0  0  0  0  0  0  0
   -4.4424  -22.6272   10.6442 C   0  0  0  0  0  0  0  0  0  0  0  0
   -5.0119  -21.2494   10.9793 C   0  0  0  0  0  0  0  0  0  0  0  0
   -3.8538  -20.4040   11.4759 C   0  0  0  0  0  0  0  0  0  0  0  0
   -0.3243  -20.2589   10.8279 N   0  0  0  0  0  0  0  0  0  0  0  0
    2.5078  -18.3640   12.4922 H   0  0  0  0  0  0  0  0  0  0  0  0
    4.2197  -17.8366   10.3907 H   0  0  0  0  0  0  0  0  0  0  0  0
    4.9709  -19.1952   11.1882 H   0  0  0  0  0  0  0  0  0  0  0  0
    7.0760  -16.4375   14.6614 H   0  0  0  0  0  0  0  0  0  0  0  0
    7.5831  -15.0721   12.2833 H   0  0  0  0  0  0  0  0  0  0  0  0
    5.9907  -16.1686   10.6284 H   0  0  0  0  0  0  0  0  0  0  0  0
    0.9031  -20.1303   13.8924 H   0  0  0  0  0  0  0  0  0  0  0  0
   -1.7085  -20.9627   13.7012 H   0  0  0  0  0  0  0  0  0  0  0  0
   -2.4806  -20.8590    9.9061 H   0  0  0  0  0  0  0  0  0  0  0  0
   -2.8377  -22.9661   12.0844 H   0  0  0  0  0  0  0  0  0  0  0  0
   -2.3481  -23.2085   10.4124 H   0  0  0  0  0  0  0  0  0  0  0  0
   -4.5143  -22.7984    9.5635 H   0  0  0  0  0  0  0  0  0  0  0  0
   -4.9882  -23.4386   11.1348 H   0  0  0  0  0  0  0  0  0  0  0  0
   -5.7979  -21.2901   11.7385 H   0  0  0  0  0  0  0  0  0  0  0  0
   -5.4343  -20.7919   10.0772 H   0  0  0  0  0  0  0  0  0  0  0  0
   -3.8723  -20.3305   12.5681 H   0  0  0  0  0  0  0  0  0  0  0  0
   -3.9398  -19.3971   11.0622 H   0  0  0  0  0  0  0  0  0  0  0  0
  1  2  2  0
  2  3  1  0
  3  4  1  0
  4  5  1  0
  5  6  2  0
  6  7  1  0
  7  8  2  0
  8  9  1  0
  2 10  1  0
 10 11  1  0
 11 12  2  0
 12 13  1  0
 13 14  1  0
 14 15  1  0
 15 16  1  0
 16 17  1  0
 17 18  1  0
 13 19  1  0
  9  5  1  0
 19 10  2  0
 18 14  1  0
  3 20  1  0
  4 21  1  0
  4 22  1  0
  7 23  1  0
  8 24  1  0
  9 25  1  0
 11 26  1  0
 12 27  1  0
 14 28  1  0
 15 29  1  0
 15 30  1  0
 16 31  1  0
 16 32  1  0
 17 33  1  0
 17 34  1  0
 18 35  1  0
 18 36  1  0
M  END
>  <Energy>  (185) 
63.690722372212043

>  <compound_id>  (185) 
17993

>  <target_id>  (185) 
1

>  <reference_id>  (185) 
112

>  <inspiration_ids>  (185) 
[112, 63]

>  <energy_score>  (185) 
7.207087131822192

>  <distance_score>  (185) 
13.376155424622445

>  <path>  (185) 
/opt/xchem-fragalysis-2/maxwin/BulkDock/SCRATCH/511024/C17993-P112/C17993-P112.minimised.mol

>  <scratch_subdir>  (185) 
/opt/xchem-fragalysis-2/maxwin/BulkDock/SCRATCH/511024/C17993-P112

>  <fragmenstein_runtime>  (185) 
8.653475522994995

>  <fragmenstein_outcome>  (185) 
too moved

>  <fragmenstein_mode>  (185) 
expansion

>  <fragmenstein_error>  (185) 


$$$$
C17993-P63
     RDKit          3D

 36 38  0  0  0  0  0  0  0  0999 V2000
   -0.3552  -13.0238   17.6312 O   0  0  0  0  0  0  0  0  0  0  0  0
    0.2505  -13.9185   18.1522 C   0  0  0  0  0  0  0  0  0  0  0  0
    2.0910  -14.1327   18.4376 N   0  0  0  0  0  0  0  0  0  0  0  0
    3.5675  -12.9454   18.1428 C   0  0  0  0  0  0  0  0  0  0  0  0
    4.9642  -12.6084   19.3971 C   0  0  0  0  0  0  0  0  0  0  0  0
    4.9767  -12.8229   20.7098 N   0  0  0  0  0  0  0  0  0  0  0  0
    6.1680  -12.3332   21.2149 C   0  0  0  0  0  0  0  0  0  0  0  0
    6.8837  -11.6804   20.2518 C   0  0  0  0  0  0  0  0  0  0  0  0
    6.1053  -11.7870   19.1406 N   0  0  0  0  0  0  0  0  0  0  0  0
   -1.0693  -15.2536   18.9703 C   0  0  0  0  0  0  0  0  0  0  0  0
   -0.6933  -16.4901   20.1169 C   0  0  0  0  0  0  0  0  0  0  0  0
   -1.5862  -17.5468   20.0327 C   0  0  0  0  0  0  0  0  0  0  0  0
   -2.5745  -17.1003   19.2348 N   0  0  0  0  0  0  0  0  0  0  0  0
   -3.7752  -17.8674   18.8007 C   0  0  0  0  0  0  0  0  0  0  0  0
   -3.5829  -19.0982   17.8865 C   0  0  0  0  0  0  0  0  0  0  0  0
   -4.9465  -19.8089   17.8815 C   0  0  0  0  0  0  0  0  0  0  0  0
   -5.6829  -19.3247   19.1250 C   0  0  0  0  0  0  0  0  0  0  0  0
   -4.6508  -18.5030   19.9012 C   0  0  0  0  0  0  0  0  0  0  0  0
   -2.1569  -15.9789   18.4777 N   0  0  0  0  0  0  0  0  0  0  0  0
    2.2967  -15.0326   18.8299 H   0  0  0  0  0  0  0  0  0  0  0  0
    3.0495  -12.0379   18.2895 H   0  0  0  0  0  0  0  0  0  0  0  0
    3.8267  -12.2366   17.3226 H   0  0  0  0  0  0  0  0  0  0  0  0
    6.4176  -12.4563   22.2607 H   0  0  0  0  0  0  0  0  0  0  0  0
    7.8073  -11.1217   20.2674 H   0  0  0  0  0  0  0  0  0  0  0  0
    6.1644  -11.1950   18.3206 H   0  0  0  0  0  0  0  0  0  0  0  0
    0.2359  -16.5066   20.6750 H   0  0  0  0  0  0  0  0  0  0  0  0
   -1.6143  -18.4995   20.5413 H   0  0  0  0  0  0  0  0  0  0  0  0
   -4.3764  -17.1493   18.2327 H   0  0  0  0  0  0  0  0  0  0  0  0
   -2.8126  -19.7629   18.2963 H   0  0  0  0  0  0  0  0  0  0  0  0
   -3.2869  -18.8448   16.8671 H   0  0  0  0  0  0  0  0  0  0  0  0
   -5.5172  -19.5429   16.9861 H   0  0  0  0  0  0  0  0  0  0  0  0
   -4.8098  -20.8939   17.8965 H   0  0  0  0  0  0  0  0  0  0  0  0
   -6.0759  -20.1530   19.7222 H   0  0  0  0  0  0  0  0  0  0  0  0
   -6.5283  -18.6902   18.8349 H   0  0  0  0  0  0  0  0  0  0  0  0
   -5.1361  -17.7860   20.5657 H   0  0  0  0  0  0  0  0  0  0  0  0
   -4.0481  -19.1664   20.5344 H   0  0  0  0  0  0  0  0  0  0  0  0
  1  2  2  0
  2  3  1  0
  3  4  1  0
  4  5  1  0
  5  6  2  0
  6  7  1  0
  7  8  2  0
  8  9  1  0
  2 10  1  0
 10 11  1  0
 11 12  2  0
 12 13  1  0
 13 14  1  0
 14 15  1  0
 15 16  1  0
 16 17  1  0
 17 18  1  0
 13 19  1  0
  9  5  1  0
 19 10  2  0
 18 14  1  0
  3 20  1  0
  4 21  1  0
  4 22  1  0
  7 23  1  0
  8 24  1  0
  9 25  1  0
 11 26  1  0
 12 27  1  0
 14 28  1  0
 15 29  1  0
 15 30  1  0
 16 31  1  0
 16 32  1  0
 17 33  1  0
 17 34  1  0
 18 35  1  0
 18 36  1  0
M  END
>  <Energy>  (186) 
390.29115759015667

>  <compound_id>  (186) 
17993

>  <target_id>  (186) 
1

>  <reference_id>  (186) 
63

>  <inspiration_ids>  (186) 
[112, 63]

>  <energy_score>  (186) 
333.807522349766

>  <distance_score>  (186) 
13.434509448938579

>  <path>  (186) 
/opt/xchem-fragalysis-2/maxwin/BulkDock/SCRATCH/511024/C17993-P63/C17993-P63.minimised.mol

>  <scratch_subdir>  (186) 
/opt/xchem-fragalysis-2/maxwin/BulkDock/SCRATCH/511024/C17993-P63

>  <fragmenstein_runtime>  (186) 
15.96869158744812

>  <fragmenstein_outcome>  (186) 
too moved

>  <fragmenstein_mode>  (186) 
expansion

>  <fragmenstein_error>  (186) 


$$$$
C48746-P112
     RDKit          3D

 46 49  0  0  0  0  0  0  0  0999 V2000
    2.4165  -19.6464    9.9010 O   0  0  0  0  0  0  0  0  0  0  0  0
    2.3887  -19.2423   11.0307 C   0  0  0  0  0  0  0  0  0  0  0  0
    3.3869  -18.4600   11.7956 N   0  0  0  0  0  0  0  0  0  0  0  0
    4.7625  -18.0213   11.4352 C   0  0  0  0  0  0  0  0  0  0  0  0
    5.6195  -16.9897   12.2476 C   0  0  0  0  0  0  0  0  0  0  0  0
    6.1129  -17.1007   13.4799 N   0  0  0  0  0  0  0  0  0  0  0  0
    7.1073  -16.1539   13.6108 C   0  0  0  0  0  0  0  0  0  0  0  0
    7.1529  -15.3348   12.5131 C   0  0  0  0  0  0  0  0  0  0  0  0
    6.2777  -15.9143   11.6242 N   0  0  0  0  0  0  0  0  0  0  0  0
    8.0742  -14.1800   12.3073 C   0  0  0  0  0  0  0  0  0  0  0  0
    8.7689  -13.8228   13.6438 C   0  0  0  0  0  0  0  0  0  0  0  0
    9.2040  -15.0796   14.4345 C   0  0  0  0  0  0  0  0  0  0  0  0
    8.0368  -16.0418   14.7658 C   0  0  0  0  0  0  0  0  0  0  0  0
    1.0814  -19.7090   11.8049 C   0  0  0  0  0  0  0  0  0  0  0  0
    0.8919  -19.9511   13.1985 C   0  0  0  0  0  0  0  0  0  0  0  0
   -0.3740  -20.4861   13.3503 C   0  0  0  0  0  0  0  0  0  0  0  0
   -0.9245  -20.5789   12.0983 N   0  0  0  0  0  0  0  0  0  0  0  0
   -2.2728  -21.0934   11.8207 C   0  0  0  0  0  0  0  0  0  0  0  0
   -3.0354  -20.5752   10.5924 C   0  0  0  0  0  0  0  0  0  0  0  0
   -4.2274  -21.5256   10.4914 C   0  0  0  0  0  0  0  0  0  0  0  0
   -3.6243  -22.8893   10.7956 C   0  0  0  0  0  0  0  0  0  0  0  0
   -2.3569  -22.6186   11.6285 C   0  0  0  0  0  0  0  0  0  0  0  0
   -0.0760  -20.0833   11.1519 N   0  0  0  0  0  0  0  0  0  0  0  0
    2.9955  -18.2180   12.7062 H   0  0  0  0  0  0  0  0  0  0  0  0
    5.3530  -18.9448   11.3910 H   0  0  0  0  0  0  0  0  0  0  0  0
    4.6911  -17.6614   10.4013 H   0  0  0  0  0  0  0  0  0  0  0  0
    6.1628  -15.6647   10.6517 H   0  0  0  0  0  0  0  0  0  0  0  0
    7.5307  -13.3100   11.9242 H   0  0  0  0  0  0  0  0  0  0  0  0
    8.8327  -14.4569   11.5659 H   0  0  0  0  0  0  0  0  0  0  0  0
    9.6381  -13.1862   13.4436 H   0  0  0  0  0  0  0  0  0  0  0  0
    8.0827  -13.2363   14.2632 H   0  0  0  0  0  0  0  0  0  0  0  0
    9.9504  -15.6201   13.8374 H   0  0  0  0  0  0  0  0  0  0  0  0
    9.7009  -14.7803   15.3643 H   0  0  0  0  0  0  0  0  0  0  0  0
    7.4970  -15.6810   15.6458 H   0  0  0  0  0  0  0  0  0  0  0  0
    8.4405  -17.0279   15.0209 H   0  0  0  0  0  0  0  0  0  0  0  0
    1.6072  -19.7766   13.9912 H   0  0  0  0  0  0  0  0  0  0  0  0
   -0.9086  -20.8199   14.2295 H   0  0  0  0  0  0  0  0  0  0  0  0
   -2.8627  -20.8224   12.7079 H   0  0  0  0  0  0  0  0  0  0  0  0
   -3.3675  -19.5419   10.6962 H   0  0  0  0  0  0  0  0  0  0  0  0
   -2.4169  -20.6411    9.6891 H   0  0  0  0  0  0  0  0  0  0  0  0
   -4.7037  -21.4912    9.5074 H   0  0  0  0  0  0  0  0  0  0  0  0
   -4.9791  -21.2636   11.2441 H   0  0  0  0  0  0  0  0  0  0  0  0
   -3.3403  -23.3905    9.8625 H   0  0  0  0  0  0  0  0  0  0  0  0
   -4.3321  -23.5484   11.3058 H   0  0  0  0  0  0  0  0  0  0  0  0
   -2.3779  -23.1443   12.5886 H   0  0  0  0  0  0  0  0  0  0  0  0
   -1.4787  -22.9910   11.0862 H   0  0  0  0  0  0  0  0  0  0  0  0
  1  2  2  0
  2  3  1  0
  3  4  1  0
  4  5  1  0
  5  6  2  0
  6  7  1  0
  7  8  2  0
  8  9  1  0
  8 10  1  0
 10 11  1  0
 11 12  1  0
 12 13  1  0
  2 14  1  0
 14 15  1  0
 15 16  2  0
 16 17  1  0
 17 18  1  0
 18 19  1  0
 19 20  1  0
 20 21  1  0
 21 22  1  0
 17 23  1  0
  9  5  1  0
 23 14  2  0
 13  7  1  0
 22 18  1  0
  3 24  1  0
  4 25  1  0
  4 26  1  0
  9 27  1  0
 10 28  1  0
 10 29  1  0
 11 30  1  0
 11 31  1  0
 12 32  1  0
 12 33  1  0
 13 34  1  0
 13 35  1  0
 15 36  1  0
 16 37  1  0
 18 38  1  0
 19 39  1  0
 19 40  1  0
 20 41  1  0
 20 42  1  0
 21 43  1  0
 21 44  1  0
 22 45  1  0
 22 46  1  0
M  END
>  <Energy>  (187) 
72.950526145241327

>  <compound_id>  (187) 
48746

>  <target_id>  (187) 
1

>  <reference_id>  (187) 
112

>  <inspiration_ids>  (187) 
[112, 63]

>  <energy_score>  (187) 
2.0939196680288035

>  <distance_score>  (187) 
13.471269652928717

>  <path>  (187) 
/opt/xchem-fragalysis-2/maxwin/BulkDock/SCRATCH/511024/C48746-P112/C48746-P112.minimised.mol

>  <scratch_subdir>  (187) 
/opt/xchem-fragalysis-2/maxwin/BulkDock/SCRATCH/511024/C48746-P112

>  <fragmenstein_runtime>  (187) 
22.11635136604309

>  <fragmenstein_outcome>  (187) 
too moved

>  <fragmenstein_mode>  (187) 
expansion

>  <fragmenstein_error>  (187) 


$$$$
C48746-P63
     RDKit          3D

 46 49  0  0  0  0  0  0  0  0999 V2000
   -0.0334  -11.5762   11.8669 O   0  0  0  0  0  0  0  0  0  0  0  0
    0.8122  -12.3431   11.4801 C   0  0  0  0  0  0  0  0  0  0  0  0
    2.4066  -11.9529   10.9224 N   0  0  0  0  0  0  0  0  0  0  0  0
    3.2473  -10.4431   10.8731 C   0  0  0  0  0  0  0  0  0  0  0  0
    4.4520   -9.7480   12.0106 C   0  0  0  0  0  0  0  0  0  0  0  0
    5.5242   -8.9263   11.9605 N   0  0  0  0  0  0  0  0  0  0  0  0
    5.4765   -8.1802   13.2277 C   0  0  0  0  0  0  0  0  0  0  0  0
    4.2286   -8.0219   13.7165 C   0  0  0  0  0  0  0  0  0  0  0  0
    4.2755   -9.6300   13.4088 N   0  0  0  0  0  0  0  0  0  0  0  0
    3.6163   -6.9027   15.2159 C   0  0  0  0  0  0  0  0  0  0  0  0
    4.5931   -6.3116   16.3848 C   0  0  0  0  0  0  0  0  0  0  0  0
    6.1227   -6.5883   15.8200 C   0  0  0  0  0  0  0  0  0  0  0  0
    6.4486   -7.7627   14.2261 C   0  0  0  0  0  0  0  0  0  0  0  0
    0.2957  -14.0823   11.6412 C   0  0  0  0  0  0  0  0  0  0  0  0
   -0.8541  -14.6836   11.0728 C   0  0  0  0  0  0  0  0  0  0  0  0
   -0.5622  -15.9462   10.6229 C   0  0  0  0  0  0  0  0  0  0  0  0
    0.4679  -16.3491   11.3435 N   0  0  0  0  0  0  0  0  0  0  0  0
    1.1337  -17.6420   11.0702 C   0  0  0  0  0  0  0  0  0  0  0  0
    0.9126  -18.9178   11.9262 C   0  0  0  0  0  0  0  0  0  0  0  0
   -0.1272  -19.8340   11.2644 C   0  0  0  0  0  0  0  0  0  0  0  0
   -0.3886  -19.2367    9.8969 C   0  0  0  0  0  0  0  0  0  0  0  0
    0.7858  -18.2743    9.6771 C   0  0  0  0  0  0  0  0  0  0  0  0
    0.8825  -15.2426   12.0961 N   0  0  0  0  0  0  0  0  0  0  0  0
    2.8598  -12.7892   10.5856 H   0  0  0  0  0  0  0  0  0  0  0  0
    2.5003   -9.6801   10.6384 H   0  0  0  0  0  0  0  0  0  0  0  0
    3.8691  -10.5823    9.9786 H   0  0  0  0  0  0  0  0  0  0  0  0
    3.5182  -10.1416   13.8185 H   0  0  0  0  0  0  0  0  0  0  0  0
    2.9992   -7.5251   15.8856 H   0  0  0  0  0  0  0  0  0  0  0  0
    3.1156   -5.9835   14.8676 H   0  0  0  0  0  0  0  0  0  0  0  0
    4.3413   -5.2615   16.6204 H   0  0  0  0  0  0  0  0  0  0  0  0
    4.4166   -6.7288   17.3882 H   0  0  0  0  0  0  0  0  0  0  0  0
    6.8537   -5.8052   15.9105 H   0  0  0  0  0  0  0  0  0  0  0  0
    6.3081   -7.0498   16.7990 H   0  0  0  0  0  0  0  0  0  0  0  0
    7.1653   -8.2489   14.7431 H   0  0  0  0  0  0  0  0  0  0  0  0
    7.1693   -7.7079   13.3609 H   0  0  0  0  0  0  0  0  0  0  0  0
   -1.6576  -14.2399   10.5896 H   0  0  0  0  0  0  0  0  0  0  0  0
   -1.0318  -16.5517    9.8646 H   0  0  0  0  0  0  0  0  0  0  0  0
    2.2006  -17.4019   11.0528 H   0  0  0  0  0  0  0  0  0  0  0  0
    0.7395  -18.7867   12.9810 H   0  0  0  0  0  0  0  0  0  0  0  0
    1.8650  -19.4706   11.9006 H   0  0  0  0  0  0  0  0  0  0  0  0
   -1.0350  -19.9435   11.8578 H   0  0  0  0  0  0  0  0  0  0  0  0
    0.2908  -20.8431   11.1632 H   0  0  0  0  0  0  0  0  0  0  0  0
   -0.4215  -20.0061    9.1187 H   0  0  0  0  0  0  0  0  0  0  0  0
   -1.3490  -18.7198    9.8724 H   0  0  0  0  0  0  0  0  0  0  0  0
    0.6007  -17.5505    8.8782 H   0  0  0  0  0  0  0  0  0  0  0  0
    1.6522  -18.8655    9.3468 H   0  0  0  0  0  0  0  0  0  0  0  0
  1  2  2  0
  2  3  1  0
  3  4  1  0
  4  5  1  0
  5  6  2  0
  6  7  1  0
  7  8  2  0
  8  9  1  0
  8 10  1  0
 10 11  1  0
 11 12  1  0
 12 13  1  0
  2 14  1  0
 14 15  1  0
 15 16  2  0
 16 17  1  0
 17 18  1  0
 18 19  1  0
 19 20  1  0
 20 21  1  0
 21 22  1  0
 17 23  1  0
  9  5  1  0
 23 14  2  0
 13  7  1  0
 22 18  1  0
  3 24  1  0
  4 25  1  0
  4 26  1  0
  9 27  1  0
 10 28  1  0
 10 29  1  0
 11 30  1  0
 11 31  1  0
 12 32  1  0
 12 33  1  0
 13 34  1  0
 13 35  1  0
 15 36  1  0
 16 37  1  0
 18 38  1  0
 19 39  1  0
 19 40  1  0
 20 41  1  0
 20 42  1  0
 21 43  1  0
 21 44  1  0
 22 45  1  0
 22 46  1  0
M  END
>  <Energy>  (188) 
499.17233754337673

>  <compound_id>  (188) 
48746

>  <target_id>  (188) 
1

>  <reference_id>  (188) 
63

>  <inspiration_ids>  (188) 
[112, 63]

>  <energy_score>  (188) 
428.31573106616315

>  <distance_score>  (188) 
14.127599643013847

>  <path>  (188) 
/opt/xchem-fragalysis-2/maxwin/BulkDock/SCRATCH/511024/C48746-P63/C48746-P63.minimised.mol

>  <scratch_subdir>  (188) 
/opt/xchem-fragalysis-2/maxwin/BulkDock/SCRATCH/511024/C48746-P63

>  <fragmenstein_runtime>  (188) 
23.74197030067444

>  <fragmenstein_outcome>  (188) 
too moved

>  <fragmenstein_mode>  (188) 
expansion

>  <fragmenstein_error>  (188) 


$$$$
C17994-P112
     RDKit          3D

 39 41  0  0  0  0  0  0  0  0999 V2000
    3.5787  -19.0603   11.4482 C   0  0  0  0  0  0  0  0  0  0  0  0
    3.5550  -19.6985   12.8409 C   0  0  0  0  0  0  0  0  0  0  0  0
    2.2735  -20.4279   13.0067 N   0  0  0  0  0  0  0  0  0  0  0  0
    1.9160  -21.7967   12.6980 C   0  0  0  0  0  0  0  0  0  0  0  0
    2.5855  -22.7069   12.3060 O   0  0  0  0  0  0  0  0  0  0  0  0
    0.4604  -22.1444   12.7724 C   0  0  0  0  0  0  0  0  0  0  0  0
   -0.0915  -23.2996   13.4015 C   0  0  0  0  0  0  0  0  0  0  0  0
   -1.4003  -23.4685   13.1801 N   0  0  0  0  0  0  0  0  0  0  0  0
   -1.6901  -22.5311   12.2570 N   0  0  0  0  0  0  0  0  0  0  0  0
   -3.0386  -22.4848   11.7181 C   0  0  0  0  0  0  0  0  0  0  0  0
   -3.7554  -23.8458   11.5968 C   0  0  0  0  0  0  0  0  0  0  0  0
   -5.0276  -23.5148   10.8291 C   0  0  0  0  0  0  0  0  0  0  0  0
   -4.6528  -22.3204    9.9477 C   0  0  0  0  0  0  0  0  0  0  0  0
   -3.2006  -21.9859   10.2838 C   0  0  0  0  0  0  0  0  0  0  0  0
   -0.6292  -21.6694   12.0451 C   0  0  0  0  0  0  0  0  0  0  0  0
    4.0871  -18.7180   13.8955 C   0  0  0  0  0  0  0  0  0  0  0  0
    5.3090  -18.1832   13.8905 N   0  0  0  0  0  0  0  0  0  0  0  0
    5.4111  -17.4194   15.0248 C   0  0  0  0  0  0  0  0  0  0  0  0
    4.2199  -17.4106   15.7002 C   0  0  0  0  0  0  0  0  0  0  0  0
    3.3999  -18.2599   14.9968 N   0  0  0  0  0  0  0  0  0  0  0  0
    3.4119  -19.8178   10.6737 H   0  0  0  0  0  0  0  0  0  0  0  0
    2.7903  -18.3100   11.3358 H   0  0  0  0  0  0  0  0  0  0  0  0
    4.5388  -18.5759   11.2402 H   0  0  0  0  0  0  0  0  0  0  0  0
    4.3067  -20.5002   12.8159 H   0  0  0  0  0  0  0  0  0  0  0  0
    1.4316  -19.9095   13.2357 H   0  0  0  0  0  0  0  0  0  0  0  0
    0.4333  -24.0192   14.0183 H   0  0  0  0  0  0  0  0  0  0  0  0
   -3.5924  -21.8121   12.3839 H   0  0  0  0  0  0  0  0  0  0  0  0
   -3.9628  -24.3281   12.5525 H   0  0  0  0  0  0  0  0  0  0  0  0
   -3.1407  -24.5478   11.0172 H   0  0  0  0  0  0  0  0  0  0  0  0
   -5.3817  -24.3673   10.2419 H   0  0  0  0  0  0  0  0  0  0  0  0
   -5.8154  -23.2382   11.5361 H   0  0  0  0  0  0  0  0  0  0  0  0
   -4.7771  -22.5408    8.8830 H   0  0  0  0  0  0  0  0  0  0  0  0
   -5.2672  -21.4475   10.1837 H   0  0  0  0  0  0  0  0  0  0  0  0
   -2.5220  -22.5206    9.6068 H   0  0  0  0  0  0  0  0  0  0  0  0
   -2.9965  -20.9186   10.1693 H   0  0  0  0  0  0  0  0  0  0  0  0
   -0.6961  -20.8627   11.3297 H   0  0  0  0  0  0  0  0  0  0  0  0
    6.3268  -16.9082   15.2816 H   0  0  0  0  0  0  0  0  0  0  0  0
    3.8767  -16.9045   16.5899 H   0  0  0  0  0  0  0  0  0  0  0  0
    2.4223  -18.4507   15.1939 H   0  0  0  0  0  0  0  0  0  0  0  0
  1  2  1  0
  2  3  1  0
  3  4  1  0
  4  5  2  0
  4  6  1  0
  6  7  1  0
  7  8  2  0
  8  9  1  0
  9 10  1  0
 10 11  1  0
 11 12  1  0
 12 13  1  0
 13 14  1  0
  9 15  1  0
  2 16  1  0
 16 17  2  0
 17 18  1  0
 18 19  2  0
 19 20  1  0
 15  6  2  0
 20 16  1  0
 14 10  1  0
  1 21  1  0
  1 22  1  0
  1 23  1  0
  2 24  1  0
  3 25  1  0
  7 26  1  0
 10 27  1  0
 11 28  1  0
 11 29  1  0
 12 30  1  0
 12 31  1  0
 13 32  1  0
 13 33  1  0
 14 34  1  0
 14 35  1  0
 15 36  1  0
 18 37  1  0
 19 38  1  0
 20 39  1  0
M  END
>  <Energy>  (189) 
20.886878264138652

>  <compound_id>  (189) 
17994

>  <target_id>  (189) 
1

>  <reference_id>  (189) 
112

>  <inspiration_ids>  (189) 
[112, 63]

>  <energy_score>  (189) 
-1.9153819994111245

>  <distance_score>  (189) 
13.72804033145206

>  <path>  (189) 
/opt/xchem-fragalysis-2/maxwin/BulkDock/SCRATCH/511024/C17994-P112/C17994-P112.minimised.mol

>  <scratch_subdir>  (189) 
/opt/xchem-fragalysis-2/maxwin/BulkDock/SCRATCH/511024/C17994-P112

>  <fragmenstein_runtime>  (189) 
23.5811607837677

>  <fragmenstein_outcome>  (189) 
too moved

>  <fragmenstein_mode>  (189) 
expansion

>  <fragmenstein_error>  (189) 


$$$$
C17994-P63
     RDKit          3D

 39 41  0  0  0  0  0  0  0  0999 V2000
    3.6198  -17.0877    6.9586 C   0  0  0  0  0  0  0  0  0  0  0  0
    2.8017  -16.2785    7.9750 C   0  0  0  0  0  0  0  0  0  0  0  0
    1.8861  -17.2361    8.6851 N   0  0  0  0  0  0  0  0  0  0  0  0
    0.5716  -17.7673    8.3039 C   0  0  0  0  0  0  0  0  0  0  0  0
   -0.1316  -17.5058    7.3699 O   0  0  0  0  0  0  0  0  0  0  0  0
   -0.0156  -18.9189    9.1228 C   0  0  0  0  0  0  0  0  0  0  0  0
    0.4476  -19.7834   10.1493 C   0  0  0  0  0  0  0  0  0  0  0  0
   -0.3928  -20.7918   10.4572 N   0  0  0  0  0  0  0  0  0  0  0  0
   -1.4896  -20.5515    9.7139 N   0  0  0  0  0  0  0  0  0  0  0  0
   -2.6848  -21.3965    9.8055 C   0  0  0  0  0  0  0  0  0  0  0  0
   -3.0004  -22.0367   11.1768 C   0  0  0  0  0  0  0  0  0  0  0  0
   -3.6448  -23.4021   10.8969 C   0  0  0  0  0  0  0  0  0  0  0  0
   -3.7310  -23.5271    9.3858 C   0  0  0  0  0  0  0  0  0  0  0  0
   -2.6438  -22.6005    8.8646 C   0  0  0  0  0  0  0  0  0  0  0  0
   -1.2964  -19.4634    8.8904 C   0  0  0  0  0  0  0  0  0  0  0  0
    3.7602  -15.2873    8.7027 C   0  0  0  0  0  0  0  0  0  0  0  0
    4.9827  -15.5124    9.1813 N   0  0  0  0  0  0  0  0  0  0  0  0
    5.5547  -14.2770    9.4484 C   0  0  0  0  0  0  0  0  0  0  0  0
    4.6863  -13.2674    9.1330 C   0  0  0  0  0  0  0  0  0  0  0  0
    3.5809  -13.9058    8.6313 N   0  0  0  0  0  0  0  0  0  0  0  0
    4.2216  -16.4330    6.3186 H   0  0  0  0  0  0  0  0  0  0  0  0
    4.2994  -17.7817    7.4666 H   0  0  0  0  0  0  0  0  0  0  0  0
    2.9653  -17.6821    6.3113 H   0  0  0  0  0  0  0  0  0  0  0  0
    2.1155  -15.6569    7.3836 H   0  0  0  0  0  0  0  0  0  0  0  0
    2.2275  -17.7443    9.4914 H   0  0  0  0  0  0  0  0  0  0  0  0
    1.3989  -19.7530   10.6644 H   0  0  0  0  0  0  0  0  0  0  0  0
   -3.5287  -20.7515    9.5256 H   0  0  0  0  0  0  0  0  0  0  0  0
   -2.0999  -22.1851   11.7833 H   0  0  0  0  0  0  0  0  0  0  0  0
   -3.6623  -21.3959   11.7651 H   0  0  0  0  0  0  0  0  0  0  0  0
   -2.9958  -24.1910   11.2964 H   0  0  0  0  0  0  0  0  0  0  0  0
   -4.6177  -23.5241   11.3789 H   0  0  0  0  0  0  0  0  0  0  0  0
   -4.6966  -23.1931    9.0128 H   0  0  0  0  0  0  0  0  0  0  0  0
   -3.5879  -24.5585    9.0499 H   0  0  0  0  0  0  0  0  0  0  0  0
   -2.8147  -22.3151    7.8215 H   0  0  0  0  0  0  0  0  0  0  0  0
   -1.6685  -23.1012    8.9145 H   0  0  0  0  0  0  0  0  0  0  0  0
   -2.0586  -19.1626    8.1852 H   0  0  0  0  0  0  0  0  0  0  0  0
    6.5533  -14.1939    9.8559 H   0  0  0  0  0  0  0  0  0  0  0  0
    4.7565  -12.1904    9.1890 H   0  0  0  0  0  0  0  0  0  0  0  0
    2.7837  -13.4510    8.2075 H   0  0  0  0  0  0  0  0  0  0  0  0
  1  2  1  0
  2  3  1  0
  3  4  1  0
  4  5  2  0
  4  6  1  0
  6  7  1  0
  7  8  2  0
  8  9  1  0
  9 10  1  0
 10 11  1  0
 11 12  1  0
 12 13  1  0
 13 14  1  0
  9 15  1  0
  2 16  1  0
 16 17  2  0
 17 18  1  0
 18 19  2  0
 19 20  1  0
 15  6  2  0
 20 16  1  0
 14 10  1  0
  1 21  1  0
  1 22  1  0
  1 23  1  0
  2 24  1  0
  3 25  1  0
  7 26  1  0
 10 27  1  0
 11 28  1  0
 11 29  1  0
 12 30  1  0
 12 31  1  0
 13 32  1  0
 13 33  1  0
 14 34  1  0
 14 35  1  0
 15 36  1  0
 18 37  1  0
 19 38  1  0
 20 39  1  0
M  END
>  <Energy>  (190) 
21.934167900780043

>  <compound_id>  (190) 
17994

>  <target_id>  (190) 
1

>  <reference_id>  (190) 
63

>  <inspiration_ids>  (190) 
[112, 63]

>  <energy_score>  (190) 
-0.8680923627675838

>  <distance_score>  (190) 
13.745558788588417

>  <path>  (190) 
/opt/xchem-fragalysis-2/maxwin/BulkDock/SCRATCH/511024/C17994-P63/C17994-P63.minimised.mol

>  <scratch_subdir>  (190) 
/opt/xchem-fragalysis-2/maxwin/BulkDock/SCRATCH/511024/C17994-P63

>  <fragmenstein_runtime>  (190) 
21.493794918060303

>  <fragmenstein_outcome>  (190) 
too moved

>  <fragmenstein_mode>  (190) 
expansion

>  <fragmenstein_error>  (190) 


$$$$
C17995-P112
     RDKit          3D

 43 45  0  0  0  0  0  0  0  0999 V2000
   -0.1736  -11.9969   12.7643 C   0  0  0  0  0  0  0  0  0  0  0  0
   -0.1023  -11.9496   11.3260 C   0  0  0  0  0  0  0  0  0  0  0  0
   -0.5534  -13.7354   11.2392 N   0  0  0  0  0  0  0  0  0  0  0  0
   -1.8790  -14.8691   10.7593 C   0  0  0  0  0  0  0  0  0  0  0  0
   -3.1379  -15.3641    9.4800 C   0  0  0  0  0  0  0  0  0  0  0  0
   -4.6752  -15.9948    9.4608 C   0  0  0  0  0  0  0  0  0  0  0  0
   -5.8619  -15.3062    9.0231 C   0  0  0  0  0  0  0  0  0  0  0  0
   -6.9425  -16.1283    9.2789 C   0  0  0  0  0  0  0  0  0  0  0  0
   -6.4035  -17.2286    9.8735 N   0  0  0  0  0  0  0  0  0  0  0  0
   -6.9689  -17.9375   11.0081 C   0  0  0  0  0  0  0  0  0  0  0  0
   -6.9721  -19.4584   10.9435 C   0  0  0  0  0  0  0  0  0  0  0  0
   -7.7357  -19.8943   12.2034 C   0  0  0  0  0  0  0  0  0  0  0  0
   -8.3954  -18.6265   12.7355 C   0  0  0  0  0  0  0  0  0  0  0  0
   -8.3796  -17.6601   11.5393 C   0  0  0  0  0  0  0  0  0  0  0  0
   -5.0453  -17.2957    9.6065 N   0  0  0  0  0  0  0  0  0  0  0  0
    0.6162  -10.2963   10.5228 C   0  0  0  0  0  0  0  0  0  0  0  0
    1.2498   -9.2905   11.0928 N   0  0  0  0  0  0  0  0  0  0  0  0
    1.1702   -7.7830   10.4868 C   0  0  0  0  0  0  0  0  0  0  0  0
    0.4507   -7.8892    9.3162 C   0  0  0  0  0  0  0  0  0  0  0  0
    0.0181   -9.2881    9.3415 N   0  0  0  0  0  0  0  0  0  0  0  0
   -0.8552  -11.2060   13.0252 H   0  0  0  0  0  0  0  0  0  0  0  0
   -0.5539  -12.9171   13.1805 H   0  0  0  0  0  0  0  0  0  0  0  0
    0.8012  -12.0286   13.2234 H   0  0  0  0  0  0  0  0  0  0  0  0
    0.9284  -12.3072   11.2376 H   0  0  0  0  0  0  0  0  0  0  0  0
   -0.0009  -14.2292   11.9435 H   0  0  0  0  0  0  0  0  0  0  0  0
   -2.5921  -14.8225   11.5367 H   0  0  0  0  0  0  0  0  0  0  0  0
   -1.1738  -15.6979   10.7553 H   0  0  0  0  0  0  0  0  0  0  0  0
   -2.6530  -16.0482    8.7784 H   0  0  0  0  0  0  0  0  0  0  0  0
   -3.4320  -14.4020    9.0766 H   0  0  0  0  0  0  0  0  0  0  0  0
   -5.9205  -14.2889    8.6663 H   0  0  0  0  0  0  0  0  0  0  0  0
   -8.0068  -15.9536    9.2210 H   0  0  0  0  0  0  0  0  0  0  0  0
   -6.3571  -17.6128   11.8491 H   0  0  0  0  0  0  0  0  0  0  0  0
   -7.5089  -19.7662   10.0432 H   0  0  0  0  0  0  0  0  0  0  0  0
   -5.9664  -19.8877   10.9069 H   0  0  0  0  0  0  0  0  0  0  0  0
   -8.4838  -20.6546   11.9772 H   0  0  0  0  0  0  0  0  0  0  0  0
   -7.0548  -20.3146   12.9509 H   0  0  0  0  0  0  0  0  0  0  0  0
   -9.3632  -18.8216   13.1898 H   0  0  0  0  0  0  0  0  0  0  0  0
   -7.7751  -18.2107   13.5416 H   0  0  0  0  0  0  0  0  0  0  0  0
   -8.5187  -16.6220   11.8558 H   0  0  0  0  0  0  0  0  0  0  0  0
   -9.1355  -17.9079   10.7870 H   0  0  0  0  0  0  0  0  0  0  0  0
    1.6679   -6.9730   11.0019 H   0  0  0  0  0  0  0  0  0  0  0  0
    0.0657   -7.2084    8.5718 H   0  0  0  0  0  0  0  0  0  0  0  0
   -0.9651   -9.3497    9.1541 H   0  0  0  0  0  0  0  0  0  0  0  0
  1  2  1  0
  2  3  1  0
  3  4  1  0
  4  5  1  0
  5  6  1  0
  6  7  1  0
  7  8  2  0
  8  9  1  0
  9 10  1  0
 10 11  1  0
 11 12  1  0
 12 13  1  0
 13 14  1  0
  9 15  1  0
  2 16  1  0
 16 17  2  0
 17 18  1  0
 18 19  2  0
 19 20  1  0
 15  6  2  0
 20 16  1  0
 14 10  1  0
  1 21  1  0
  1 22  1  0
  1 23  1  0
  2 24  1  0
  3 25  1  0
  4 26  1  0
  4 27  1  0
  5 28  1  0
  5 29  1  0
  7 30  1  0
  8 31  1  0
 10 32  1  0
 11 33  1  0
 11 34  1  0
 12 35  1  0
 12 36  1  0
 13 37  1  0
 13 38  1  0
 14 39  1  0
 14 40  1  0
 18 41  1  0
 19 42  1  0
 20 43  1  0
M  END
>  <Energy>  (191) 
441.1771509819776

>  <compound_id>  (191) 
17995

>  <target_id>  (191) 
1

>  <reference_id>  (191) 
112

>  <inspiration_ids>  (191) 
[112, 63]

>  <energy_score>  (191) 
385.243917552209

>  <distance_score>  (191) 
12.141193402680788

>  <path>  (191) 
/opt/xchem-fragalysis-2/maxwin/BulkDock/SCRATCH/511024/C17995-P112/C17995-P112.minimised.mol

>  <scratch_subdir>  (191) 
/opt/xchem-fragalysis-2/maxwin/BulkDock/SCRATCH/511024/C17995-P112

>  <fragmenstein_runtime>  (191) 
10.485664367675781

>  <fragmenstein_outcome>  (191) 
too moved

>  <fragmenstein_mode>  (191) 
expansion

>  <fragmenstein_error>  (191) 


$$$$
C17995-P63
     RDKit          3D

 43 45  0  0  0  0  0  0  0  0999 V2000
   -2.6721  -10.8021   18.6502 C   0  0  0  0  0  0  0  0  0  0  0  0
   -3.5822   -9.5834   18.5675 C   0  0  0  0  0  0  0  0  0  0  0  0
   -4.8770   -9.9102   19.2756 N   0  0  0  0  0  0  0  0  0  0  0  0
   -5.8081  -10.7634   18.4096 C   0  0  0  0  0  0  0  0  0  0  0  0
   -6.6976  -11.9002   19.0677 C   0  0  0  0  0  0  0  0  0  0  0  0
   -7.5190  -12.8228   18.1082 C   0  0  0  0  0  0  0  0  0  0  0  0
   -8.2760  -12.4209   16.9773 C   0  0  0  0  0  0  0  0  0  0  0  0
   -8.8916  -13.5506   16.4939 C   0  0  0  0  0  0  0  0  0  0  0  0
   -8.5148  -14.5724   17.3143 N   0  0  0  0  0  0  0  0  0  0  0  0
   -8.9415  -15.9693   17.2047 C   0  0  0  0  0  0  0  0  0  0  0  0
   -8.7971  -16.5397   15.7809 C   0  0  0  0  0  0  0  0  0  0  0  0
  -10.1716  -17.0649   15.3722 C   0  0  0  0  0  0  0  0  0  0  0  0
  -11.1601  -16.3276   16.2512 C   0  0  0  0  0  0  0  0  0  0  0  0
  -10.4200  -16.1876   17.5759 C   0  0  0  0  0  0  0  0  0  0  0  0
   -7.6909  -14.1516   18.3222 N   0  0  0  0  0  0  0  0  0  0  0  0
   -2.6981   -8.3443   18.9803 C   0  0  0  0  0  0  0  0  0  0  0  0
   -2.4473   -7.2793   18.2173 N   0  0  0  0  0  0  0  0  0  0  0  0
   -1.3708   -6.6161   18.7686 C   0  0  0  0  0  0  0  0  0  0  0  0
   -0.9059   -7.2976   19.8594 C   0  0  0  0  0  0  0  0  0  0  0  0
   -1.7570   -8.3683   20.0011 N   0  0  0  0  0  0  0  0  0  0  0  0
   -1.7139  -10.5725   18.2058 H   0  0  0  0  0  0  0  0  0  0  0  0
   -2.5035  -11.1393   19.6786 H   0  0  0  0  0  0  0  0  0  0  0  0
   -3.0525  -11.6262   18.0717 H   0  0  0  0  0  0  0  0  0  0  0  0
   -3.8297   -9.3915   17.5149 H   0  0  0  0  0  0  0  0  0  0  0  0
   -4.6614  -10.4340   20.1217 H   0  0  0  0  0  0  0  0  0  0  0  0
   -6.4737  -10.0624   17.8921 H   0  0  0  0  0  0  0  0  0  0  0  0
   -5.2252  -11.2505   17.6365 H   0  0  0  0  0  0  0  0  0  0  0  0
   -6.0542  -12.5374   19.6834 H   0  0  0  0  0  0  0  0  0  0  0  0
   -7.4139  -11.4231   19.7483 H   0  0  0  0  0  0  0  0  0  0  0  0
   -8.3656  -11.4234   16.5695 H   0  0  0  0  0  0  0  0  0  0  0  0
   -9.5520  -13.6952   15.6512 H   0  0  0  0  0  0  0  0  0  0  0  0
   -8.3019  -16.5297   17.8984 H   0  0  0  0  0  0  0  0  0  0  0  0
   -8.4500  -15.7939   15.0575 H   0  0  0  0  0  0  0  0  0  0  0  0
   -8.0487  -17.3370   15.7791 H   0  0  0  0  0  0  0  0  0  0  0  0
  -10.3699  -16.9203   14.3067 H   0  0  0  0  0  0  0  0  0  0  0  0
  -10.2146  -18.1321   15.5795 H   0  0  0  0  0  0  0  0  0  0  0  0
  -12.1065  -16.8647   16.3602 H   0  0  0  0  0  0  0  0  0  0  0  0
  -11.3791  -15.3399   15.8308 H   0  0  0  0  0  0  0  0  0  0  0  0
  -10.5122  -17.1199   18.1450 H   0  0  0  0  0  0  0  0  0  0  0  0
  -10.8374  -15.3841   18.1914 H   0  0  0  0  0  0  0  0  0  0  0  0
   -0.9871   -5.7036   18.3322 H   0  0  0  0  0  0  0  0  0  0  0  0
   -0.0759   -7.1381   20.5312 H   0  0  0  0  0  0  0  0  0  0  0  0
   -1.6266   -9.1355   20.6447 H   0  0  0  0  0  0  0  0  0  0  0  0
  1  2  1  0
  2  3  1  0
  3  4  1  0
  4  5  1  0
  5  6  1  0
  6  7  1  0
  7  8  2  0
  8  9  1  0
  9 10  1  0
 10 11  1  0
 11 12  1  0
 12 13  1  0
 13 14  1  0
  9 15  1  0
  2 16  1  0
 16 17  2  0
 17 18  1  0
 18 19  2  0
 19 20  1  0
 15  6  2  0
 20 16  1  0
 14 10  1  0
  1 21  1  0
  1 22  1  0
  1 23  1  0
  2 24  1  0
  3 25  1  0
  4 26  1  0
  4 27  1  0
  5 28  1  0
  5 29  1  0
  7 30  1  0
  8 31  1  0
 10 32  1  0
 11 33  1  0
 11 34  1  0
 12 35  1  0
 12 36  1  0
 13 37  1  0
 13 38  1  0
 14 39  1  0
 14 40  1  0
 18 41  1  0
 19 42  1  0
 20 43  1  0
M  END
>  <Energy>  (192) 
57.353362064832211

>  <compound_id>  (192) 
17995

>  <target_id>  (192) 
1

>  <reference_id>  (192) 
63

>  <inspiration_ids>  (192) 
[112, 63]

>  <energy_score>  (192) 
1.4201286350661348

>  <distance_score>  (192) 
12.971758529739002

>  <path>  (192) 
/opt/xchem-fragalysis-2/maxwin/BulkDock/SCRATCH/511024/C17995-P63/C17995-P63.minimised.mol

>  <scratch_subdir>  (192) 
/opt/xchem-fragalysis-2/maxwin/BulkDock/SCRATCH/511024/C17995-P63

>  <fragmenstein_runtime>  (192) 
16.866062879562378

>  <fragmenstein_outcome>  (192) 
too moved

>  <fragmenstein_mode>  (192) 
expansion

>  <fragmenstein_error>  (192) 


$$$$
C17996-P112
     RDKit          3D

 40 42  0  0  0  0  0  0  0  0999 V2000
   -0.3087  -12.5929   12.9745 O   0  0  0  0  0  0  0  0  0  0  0  0
    0.2317  -12.9790   11.9966 C   0  0  0  0  0  0  0  0  0  0  0  0
    1.4326  -12.2068   11.1581 N   0  0  0  0  0  0  0  0  0  0  0  0
    2.4067  -10.5829   11.5411 C   0  0  0  0  0  0  0  0  0  0  0  0
    1.2065   -9.7524   11.1444 C   0  0  0  0  0  0  0  0  0  0  0  0
    0.6156   -9.9288    9.9059 O   0  0  0  0  0  0  0  0  0  0  0  0
    3.7058   -9.9600   13.0279 C   0  0  0  0  0  0  0  0  0  0  0  0
    3.4396   -9.9607   14.3690 N   0  0  0  0  0  0  0  0  0  0  0  0
    3.0033   -8.2707   15.0008 C   0  0  0  0  0  0  0  0  0  0  0  0
    3.8530   -7.5165   14.2355 C   0  0  0  0  0  0  0  0  0  0  0  0
    4.1367   -8.2725   13.1644 N   0  0  0  0  0  0  0  0  0  0  0  0
   -0.3262  -14.6210   11.6066 C   0  0  0  0  0  0  0  0  0  0  0  0
    0.3850  -15.7590   11.0827 C   0  0  0  0  0  0  0  0  0  0  0  0
   -0.4957  -16.8166   10.7680 C   0  0  0  0  0  0  0  0  0  0  0  0
   -1.7368  -16.4531   11.0235 N   0  0  0  0  0  0  0  0  0  0  0  0
   -1.5498  -15.4706   11.9515 N   0  0  0  0  0  0  0  0  0  0  0  0
   -2.3893  -15.7309   13.1585 C   0  0  0  0  0  0  0  0  0  0  0  0
   -3.9137  -15.5283   12.8822 C   0  0  0  0  0  0  0  0  0  0  0  0
   -4.5578  -16.9136   12.8229 C   0  0  0  0  0  0  0  0  0  0  0  0
   -3.7981  -17.6733   13.8855 C   0  0  0  0  0  0  0  0  0  0  0  0
   -2.3484  -17.1960   13.7183 C   0  0  0  0  0  0  0  0  0  0  0  0
    1.7542  -12.7967   10.4307 H   0  0  0  0  0  0  0  0  0  0  0  0
    3.1292  -10.6704   10.7134 H   0  0  0  0  0  0  0  0  0  0  0  0
    1.2780   -8.6660   11.1504 H   0  0  0  0  0  0  0  0  0  0  0  0
    0.4814  -10.1358   11.8454 H   0  0  0  0  0  0  0  0  0  0  0  0
   -0.0078  -10.6363   10.1002 H   0  0  0  0  0  0  0  0  0  0  0  0
    2.6666   -8.0405   16.0296 H   0  0  0  0  0  0  0  0  0  0  0  0
    3.8728   -6.5021   14.5817 H   0  0  0  0  0  0  0  0  0  0  0  0
    3.6734   -7.9062   12.3571 H   0  0  0  0  0  0  0  0  0  0  0  0
    1.4249  -15.8130   10.8259 H   0  0  0  0  0  0  0  0  0  0  0  0
   -0.2889  -17.7594   10.2783 H   0  0  0  0  0  0  0  0  0  0  0  0
   -1.9945  -15.0805   13.9384 H   0  0  0  0  0  0  0  0  0  0  0  0
   -4.1241  -14.9719   11.9656 H   0  0  0  0  0  0  0  0  0  0  0  0
   -4.3489  -14.9680   13.7191 H   0  0  0  0  0  0  0  0  0  0  0  0
   -4.4009  -17.3667   11.8378 H   0  0  0  0  0  0  0  0  0  0  0  0
   -5.6331  -16.8788   13.0195 H   0  0  0  0  0  0  0  0  0  0  0  0
   -4.1648  -17.4009   14.8823 H   0  0  0  0  0  0  0  0  0  0  0  0
   -3.8908  -18.7575   13.7748 H   0  0  0  0  0  0  0  0  0  0  0  0
   -1.8322  -17.2179   14.6852 H   0  0  0  0  0  0  0  0  0  0  0  0
   -1.8054  -17.8862   13.0656 H   0  0  0  0  0  0  0  0  0  0  0  0
  1  2  2  0
  2  3  1  0
  3  4  1  0
  4  5  1  0
  5  6  1  0
  4  7  1  0
  7  8  2  0
  8  9  1  0
  9 10  2  0
 10 11  1  0
  2 12  1  0
 12 13  2  0
 13 14  1  0
 14 15  2  0
 15 16  1  0
 16 17  1  0
 17 18  1  0
 18 19  1  0
 19 20  1  0
 20 21  1  0
 11  7  1  0
 16 12  1  0
 21 17  1  0
  3 22  1  0
  4 23  1  0
  5 24  1  0
  5 25  1  0
  6 26  1  0
  9 27  1  0
 10 28  1  0
 11 29  1  0
 13 30  1  0
 14 31  1  0
 17 32  1  0
 18 33  1  0
 18 34  1  0
 19 35  1  0
 19 36  1  0
 20 37  1  0
 20 38  1  0
 21 39  1  0
 21 40  1  0
M  END
>  <Energy>  (193) 
425.9081840616218

>  <compound_id>  (193) 
17996

>  <target_id>  (193) 
1

>  <reference_id>  (193) 
112

>  <inspiration_ids>  (193) 
[112, 63]

>  <energy_score>  (193) 
379.0303189655814

>  <distance_score>  (193) 
13.716107685338411

>  <path>  (193) 
/opt/xchem-fragalysis-2/maxwin/BulkDock/SCRATCH/511024/C17996-P112/C17996-P112.minimised.mol

>  <scratch_subdir>  (193) 
/opt/xchem-fragalysis-2/maxwin/BulkDock/SCRATCH/511024/C17996-P112

>  <fragmenstein_runtime>  (193) 
18.028740406036377

>  <fragmenstein_outcome>  (193) 
too moved

>  <fragmenstein_mode>  (193) 
expansion

>  <fragmenstein_error>  (193) 


$$$$
C17996-P63
     RDKit          3D

 40 42  0  0  0  0  0  0  0  0999 V2000
    0.8913  -13.5450   13.0096 O   0  0  0  0  0  0  0  0  0  0  0  0
    1.4019  -13.7577   11.8754 C   0  0  0  0  0  0  0  0  0  0  0  0
    3.3860  -13.0482   11.4649 N   0  0  0  0  0  0  0  0  0  0  0  0
    4.9269  -12.0898   12.8198 C   0  0  0  0  0  0  0  0  0  0  0  0
    4.3324  -11.0688   14.0242 C   0  0  0  0  0  0  0  0  0  0  0  0
    4.6244   -9.7574   13.7653 O   0  0  0  0  0  0  0  0  0  0  0  0
    6.7064  -12.0362   13.5451 C   0  0  0  0  0  0  0  0  0  0  0  0
    7.1795  -10.5235   14.2366 N   0  0  0  0  0  0  0  0  0  0  0  0
    8.6095  -10.4985   15.3910 C   0  0  0  0  0  0  0  0  0  0  0  0
    9.2237  -11.7072   15.2523 C   0  0  0  0  0  0  0  0  0  0  0  0
    8.4216  -11.2448   14.0672 N   0  0  0  0  0  0  0  0  0  0  0  0
    0.3193  -14.8176   10.9767 C   0  0  0  0  0  0  0  0  0  0  0  0
    0.7209  -16.2145   10.9689 C   0  0  0  0  0  0  0  0  0  0  0  0
    0.2178  -16.6798   12.2469 C   0  0  0  0  0  0  0  0  0  0  0  0
   -0.8398  -15.9487   12.6392 N   0  0  0  0  0  0  0  0  0  0  0  0
   -1.1567  -15.3788   11.4364 N   0  0  0  0  0  0  0  0  0  0  0  0
   -2.0872  -16.3255   10.6405 C   0  0  0  0  0  0  0  0  0  0  0  0
   -3.4247  -15.8428   10.0421 C   0  0  0  0  0  0  0  0  0  0  0  0
   -4.4841  -15.9862   11.1326 C   0  0  0  0  0  0  0  0  0  0  0  0
   -4.0405  -17.1748   11.9701 C   0  0  0  0  0  0  0  0  0  0  0  0
   -2.6735  -17.5786   11.4103 C   0  0  0  0  0  0  0  0  0  0  0  0
    3.6132  -13.2270   10.4834 H   0  0  0  0  0  0  0  0  0  0  0  0
    5.0162  -11.1947   12.2448 H   0  0  0  0  0  0  0  0  0  0  0  0
    3.2961  -10.8804   13.9699 H   0  0  0  0  0  0  0  0  0  0  0  0
    4.4756  -11.4454   15.0160 H   0  0  0  0  0  0  0  0  0  0  0  0
    3.8376   -9.3155   13.3900 H   0  0  0  0  0  0  0  0  0  0  0  0
    9.0690   -9.5612   15.6692 H   0  0  0  0  0  0  0  0  0  0  0  0
   10.2793  -11.9350   15.2259 H   0  0  0  0  0  0  0  0  0  0  0  0
    9.1387  -11.1351   13.3873 H   0  0  0  0  0  0  0  0  0  0  0  0
    1.6313  -16.5977   10.5272 H   0  0  0  0  0  0  0  0  0  0  0  0
    0.5895  -17.4753   12.8806 H   0  0  0  0  0  0  0  0  0  0  0  0
   -1.4543  -16.7064    9.8333 H   0  0  0  0  0  0  0  0  0  0  0  0
   -3.4121  -14.8690    9.5696 H   0  0  0  0  0  0  0  0  0  0  0  0
   -3.6955  -16.5333    9.2289 H   0  0  0  0  0  0  0  0  0  0  0  0
   -5.4828  -16.1311   10.7095 H   0  0  0  0  0  0  0  0  0  0  0  0
   -4.5125  -15.0838   11.7533 H   0  0  0  0  0  0  0  0  0  0  0  0
   -3.9563  -16.8833   13.0228 H   0  0  0  0  0  0  0  0  0  0  0  0
   -4.7515  -18.0054   11.9100 H   0  0  0  0  0  0  0  0  0  0  0  0
   -2.0394  -18.0172   12.1830 H   0  0  0  0  0  0  0  0  0  0  0  0
   -2.8322  -18.3774   10.6714 H   0  0  0  0  0  0  0  0  0  0  0  0
  1  2  2  0
  2  3  1  0
  3  4  1  0
  4  5  1  0
  5  6  1  0
  4  7  1  0
  7  8  2  0
  8  9  1  0
  9 10  2  0
 10 11  1  0
  2 12  1  0
 12 13  2  0
 13 14  1  0
 14 15  2  0
 15 16  1  0
 16 17  1  0
 17 18  1  0
 18 19  1  0
 19 20  1  0
 20 21  1  0
 11  7  1  0
 16 12  1  0
 21 17  1  0
  3 22  1  0
  4 23  1  0
  5 24  1  0
  5 25  1  0
  6 26  1  0
  9 27  1  0
 10 28  1  0
 11 29  1  0
 13 30  1  0
 14 31  1  0
 17 32  1  0
 18 33  1  0
 18 34  1  0
 19 35  1  0
 19 36  1  0
 20 37  1  0
 20 38  1  0
 21 39  1  0
 21 40  1  0
M  END
>  <Energy>  (194) 
1164.6332267306059

>  <compound_id>  (194) 
17996

>  <target_id>  (194) 
1

>  <reference_id>  (194) 
63

>  <inspiration_ids>  (194) 
[112, 63]

>  <energy_score>  (194) 
1117.7553616345665

>  <distance_score>  (194) 
13.636732143587764

>  <path>  (194) 
/opt/xchem-fragalysis-2/maxwin/BulkDock/SCRATCH/511024/C17996-P63/C17996-P63.minimised.mol

>  <scratch_subdir>  (194) 
/opt/xchem-fragalysis-2/maxwin/BulkDock/SCRATCH/511024/C17996-P63

>  <fragmenstein_runtime>  (194) 
16.30948519706726

>  <fragmenstein_outcome>  (194) 
too moved

>  <fragmenstein_mode>  (194) 
expansion

>  <fragmenstein_error>  (194) 


$$$$
C17997-P112
     RDKit          3D

 42 44  0  0  0  0  0  0  0  0999 V2000
   -1.8881  -10.0645   17.7574 O   0  0  0  0  0  0  0  0  0  0  0  0
   -1.8207   -9.0537   18.4166 C   0  0  0  0  0  0  0  0  0  0  0  0
   -3.2590   -8.5783   18.9588 C   0  0  0  0  0  0  0  0  0  0  0  0
   -4.5627   -9.4204   18.4553 C   0  0  0  0  0  0  0  0  0  0  0  0
   -5.2026   -9.2041   17.2048 C   0  0  0  0  0  0  0  0  0  0  0  0
   -6.4284   -9.8213   17.2636 C   0  0  0  0  0  0  0  0  0  0  0  0
   -6.4674  -10.5170   18.4388 N   0  0  0  0  0  0  0  0  0  0  0  0
   -7.4351  -11.5729   18.7542 C   0  0  0  0  0  0  0  0  0  0  0  0
   -8.7105  -11.7149   17.8722 C   0  0  0  0  0  0  0  0  0  0  0  0
   -9.5273  -12.8093   18.5519 C   0  0  0  0  0  0  0  0  0  0  0  0
   -9.2276  -12.6254   20.0365 C   0  0  0  0  0  0  0  0  0  0  0  0
   -8.1060  -11.5692   20.1293 C   0  0  0  0  0  0  0  0  0  0  0  0
   -5.3523  -10.2381   19.2182 N   0  0  0  0  0  0  0  0  0  0  0  0
   -0.5880   -8.1765   18.8000 N   0  0  0  0  0  0  0  0  0  0  0  0
    1.0033   -8.4012   18.5283 C   0  0  0  0  0  0  0  0  0  0  0  0
    2.7485   -8.1383   17.9051 C   0  0  0  0  0  0  0  0  0  0  0  0
    4.4380   -7.2529   18.2697 C   0  0  0  0  0  0  0  0  0  0  0  0
    5.4927   -7.9589   18.7804 N   0  0  0  0  0  0  0  0  0  0  0  0
    6.2698   -7.0347   19.4078 C   0  0  0  0  0  0  0  0  0  0  0  0
    5.9163   -5.8004   18.9542 C   0  0  0  0  0  0  0  0  0  0  0  0
    5.0921   -6.0717   17.8830 N   0  0  0  0  0  0  0  0  0  0  0  0
   -3.4204   -7.5502   18.6181 H   0  0  0  0  0  0  0  0  0  0  0  0
   -3.2754   -8.5676   20.0484 H   0  0  0  0  0  0  0  0  0  0  0  0
   -4.8384   -8.5960   16.3930 H   0  0  0  0  0  0  0  0  0  0  0  0
   -7.2371   -9.8500   16.5495 H   0  0  0  0  0  0  0  0  0  0  0  0
   -6.8325  -12.4679   18.6750 H   0  0  0  0  0  0  0  0  0  0  0  0
   -8.5453  -11.9593   16.8272 H   0  0  0  0  0  0  0  0  0  0  0  0
   -9.2726  -10.7710   17.8840 H   0  0  0  0  0  0  0  0  0  0  0  0
   -9.1958  -13.7981   18.2175 H   0  0  0  0  0  0  0  0  0  0  0  0
  -10.5951  -12.7190   18.3313 H   0  0  0  0  0  0  0  0  0  0  0  0
   -8.9088  -13.5716   20.4847 H   0  0  0  0  0  0  0  0  0  0  0  0
  -10.1130  -12.2879   20.5857 H   0  0  0  0  0  0  0  0  0  0  0  0
   -7.4138  -11.7802   20.9482 H   0  0  0  0  0  0  0  0  0  0  0  0
   -8.5427  -10.5827   20.3324 H   0  0  0  0  0  0  0  0  0  0  0  0
   -0.8802   -7.4456   19.4355 H   0  0  0  0  0  0  0  0  0  0  0  0
    0.8290   -9.0497   17.7221 H   0  0  0  0  0  0  0  0  0  0  0  0
    1.0196   -8.5408   19.5987 H   0  0  0  0  0  0  0  0  0  0  0  0
    2.6229   -8.1291   16.8286 H   0  0  0  0  0  0  0  0  0  0  0  0
    3.1064   -9.1637   18.0290 H   0  0  0  0  0  0  0  0  0  0  0  0
    6.9853   -7.3150   20.1694 H   0  0  0  0  0  0  0  0  0  0  0  0
    6.2118   -4.8147   19.2598 H   0  0  0  0  0  0  0  0  0  0  0  0
    4.7712   -5.4094   17.1921 H   0  0  0  0  0  0  0  0  0  0  0  0
  1  2  2  0
  2  3  1  0
  3  4  1  0
  4  5  1  0
  5  6  2  0
  6  7  1  0
  7  8  1  0
  8  9  1  0
  9 10  1  0
 10 11  1  0
 11 12  1  0
  7 13  1  0
  2 14  1  0
 14 15  1  0
 15 16  1  0
 16 17  1  0
 17 18  2  0
 18 19  1  0
 19 20  2  0
 20 21  1  0
 13  4  2  0
 21 17  1  0
 12  8  1  0
  3 22  1  0
  3 23  1  0
  5 24  1  0
  6 25  1  0
  8 26  1  0
  9 27  1  0
  9 28  1  0
 10 29  1  0
 10 30  1  0
 11 31  1  0
 11 32  1  0
 12 33  1  0
 12 34  1  0
 14 35  1  0
 15 36  1  0
 15 37  1  0
 16 38  1  0
 16 39  1  0
 19 40  1  0
 20 41  1  0
 21 42  1  0
M  END
>  <Energy>  (195) 
270.48115672792824

>  <compound_id>  (195) 
17997

>  <target_id>  (195) 
1

>  <reference_id>  (195) 
112

>  <inspiration_ids>  (195) 
[112, 63]

>  <energy_score>  (195) 
220.6595980553305

>  <distance_score>  (195) 
14.068228915939187

>  <path>  (195) 
/opt/xchem-fragalysis-2/maxwin/BulkDock/SCRATCH/511024/C17997-P112/C17997-P112.minimised.mol

>  <scratch_subdir>  (195) 
/opt/xchem-fragalysis-2/maxwin/BulkDock/SCRATCH/511024/C17997-P112

>  <fragmenstein_runtime>  (195) 
20.877861261367798

>  <fragmenstein_outcome>  (195) 
too moved

>  <fragmenstein_mode>  (195) 
expansion

>  <fragmenstein_error>  (195) 


$$$$
C17997-P63
     RDKit          3D

 42 44  0  0  0  0  0  0  0  0999 V2000
   -1.6285  -14.4439   15.2515 O   0  0  0  0  0  0  0  0  0  0  0  0
   -1.5902  -13.9631   14.0116 C   0  0  0  0  0  0  0  0  0  0  0  0
   -3.4633  -14.3603   12.8895 C   0  0  0  0  0  0  0  0  0  0  0  0
   -5.4241  -14.6394   12.6956 C   0  0  0  0  0  0  0  0  0  0  0  0
   -6.5439  -13.6566   12.3925 C   0  0  0  0  0  0  0  0  0  0  0  0
   -7.7092  -14.3421   12.1773 C   0  0  0  0  0  0  0  0  0  0  0  0
   -7.3479  -15.6439   12.1485 N   0  0  0  0  0  0  0  0  0  0  0  0
   -8.2245  -16.7277   11.7325 C   0  0  0  0  0  0  0  0  0  0  0  0
   -9.2369  -16.3672   10.6125 C   0  0  0  0  0  0  0  0  0  0  0  0
   -9.3912  -17.6116    9.7402 C   0  0  0  0  0  0  0  0  0  0  0  0
   -8.6940  -18.7114   10.5147 C   0  0  0  0  0  0  0  0  0  0  0  0
   -7.5377  -17.9763   11.1706 C   0  0  0  0  0  0  0  0  0  0  0  0
   -6.1066  -15.8637   12.6344 N   0  0  0  0  0  0  0  0  0  0  0  0
   -0.3233  -12.9102   13.1633 N   0  0  0  0  0  0  0  0  0  0  0  0
    1.2519  -12.0586   13.8277 C   0  0  0  0  0  0  0  0  0  0  0  0
    3.0618  -10.8754   13.8031 C   0  0  0  0  0  0  0  0  0  0  0  0
    4.3312  -10.2664   12.6894 C   0  0  0  0  0  0  0  0  0  0  0  0
    5.5315   -9.8902   13.1033 N   0  0  0  0  0  0  0  0  0  0  0  0
    6.1721   -9.3413   12.0276 C   0  0  0  0  0  0  0  0  0  0  0  0
    5.3509   -9.3589   10.9304 C   0  0  0  0  0  0  0  0  0  0  0  0
    4.1940   -9.9645   11.3510 N   0  0  0  0  0  0  0  0  0  0  0  0
   -3.1191  -14.6345   11.8330 H   0  0  0  0  0  0  0  0  0  0  0  0
   -3.7371  -15.3918   13.2146 H   0  0  0  0  0  0  0  0  0  0  0  0
   -6.4582  -12.5845   12.2840 H   0  0  0  0  0  0  0  0  0  0  0  0
   -8.7024  -13.9977   11.9320 H   0  0  0  0  0  0  0  0  0  0  0  0
   -8.8118  -16.9691   12.6234 H   0  0  0  0  0  0  0  0  0  0  0  0
   -8.8936  -15.5332    9.9892 H   0  0  0  0  0  0  0  0  0  0  0  0
  -10.1959  -16.0675   11.0500 H   0  0  0  0  0  0  0  0  0  0  0  0
   -8.8703  -17.4483    8.7880 H   0  0  0  0  0  0  0  0  0  0  0  0
  -10.4296  -17.8364    9.4914 H   0  0  0  0  0  0  0  0  0  0  0  0
   -9.3294  -19.1395   11.2916 H   0  0  0  0  0  0  0  0  0  0  0  0
   -8.3957  -19.5131    9.8477 H   0  0  0  0  0  0  0  0  0  0  0  0
   -6.7845  -17.7037   10.4200 H   0  0  0  0  0  0  0  0  0  0  0  0
   -7.0343  -18.5715   11.9338 H   0  0  0  0  0  0  0  0  0  0  0  0
   -0.6481  -12.6561   12.2377 H   0  0  0  0  0  0  0  0  0  0  0  0
    1.1229  -11.6604   12.7588 H   0  0  0  0  0  0  0  0  0  0  0  0
    1.4827  -12.9606   14.2813 H   0  0  0  0  0  0  0  0  0  0  0  0
    3.1187  -10.1133   14.5412 H   0  0  0  0  0  0  0  0  0  0  0  0
    3.8985  -11.3400   14.4834 H   0  0  0  0  0  0  0  0  0  0  0  0
    7.1796   -8.9559   12.1045 H   0  0  0  0  0  0  0  0  0  0  0  0
    5.4791   -9.0065    9.9178 H   0  0  0  0  0  0  0  0  0  0  0  0
    3.3415  -10.0768   10.8233 H   0  0  0  0  0  0  0  0  0  0  0  0
  1  2  2  0
  2  3  1  0
  3  4  1  0
  4  5  1  0
  5  6  2  0
  6  7  1  0
  7  8  1  0
  8  9  1  0
  9 10  1  0
 10 11  1  0
 11 12  1  0
  7 13  1  0
  2 14  1  0
 14 15  1  0
 15 16  1  0
 16 17  1  0
 17 18  2  0
 18 19  1  0
 19 20  2  0
 20 21  1  0
 13  4  2  0
 21 17  1  0
 12  8  1  0
  3 22  1  0
  3 23  1  0
  5 24  1  0
  6 25  1  0
  8 26  1  0
  9 27  1  0
  9 28  1  0
 10 29  1  0
 10 30  1  0
 11 31  1  0
 11 32  1  0
 12 33  1  0
 12 34  1  0
 14 35  1  0
 15 36  1  0
 15 37  1  0
 16 38  1  0
 16 39  1  0
 19 40  1  0
 20 41  1  0
 21 42  1  0
M  END
>  <Energy>  (196) 
677.06395774551561

>  <compound_id>  (196) 
17997

>  <target_id>  (196) 
1

>  <reference_id>  (196) 
63

>  <inspiration_ids>  (196) 
[112, 63]

>  <energy_score>  (196) 
627.2423990729092

>  <distance_score>  (196) 
11.058564166304471

>  <path>  (196) 
/opt/xchem-fragalysis-2/maxwin/BulkDock/SCRATCH/511024/C17997-P63/C17997-P63.minimised.mol

>  <scratch_subdir>  (196) 
/opt/xchem-fragalysis-2/maxwin/BulkDock/SCRATCH/511024/C17997-P63

>  <fragmenstein_runtime>  (196) 
18.664685249328613

>  <fragmenstein_outcome>  (196) 
too moved

>  <fragmenstein_mode>  (196) 
expansion

>  <fragmenstein_error>  (196) 


$$$$
C17998-P112
     RDKit          3D

 42 44  0  0  0  0  0  0  0  0999 V2000
    3.1979   -9.9655   14.4947 C   0  0  0  0  0  0  0  0  0  0  0  0
    1.9153  -11.1266   13.4600 C   0  0  0  0  0  0  0  0  0  0  0  0
    0.0072  -12.1626   13.0117 C   0  0  0  0  0  0  0  0  0  0  0  0
   -1.1593  -13.8805   13.2263 N   0  0  0  0  0  0  0  0  0  0  0  0
   -3.1685  -14.2077   13.5788 C   0  0  0  0  0  0  0  0  0  0  0  0
   -3.9562  -13.4220   13.6202 O   0  0  0  0  0  0  0  0  0  0  0  0
   -3.8518  -16.1145   14.0785 C   0  0  0  0  0  0  0  0  0  0  0  0
   -3.4282  -17.4065   14.7465 C   0  0  0  0  0  0  0  0  0  0  0  0
   -4.4827  -18.1633   15.2328 C   0  0  0  0  0  0  0  0  0  0  0  0
   -5.5776  -17.5560   14.7463 N   0  0  0  0  0  0  0  0  0  0  0  0
   -6.9380  -18.0772   14.6497 C   0  0  0  0  0  0  0  0  0  0  0  0
   -7.4755  -18.8486   15.8529 C   0  0  0  0  0  0  0  0  0  0  0  0
   -8.6719  -19.5899   15.2796 C   0  0  0  0  0  0  0  0  0  0  0  0
   -8.2857  -19.9861   13.8673 C   0  0  0  0  0  0  0  0  0  0  0  0
   -7.1651  -19.0316   13.4621 C   0  0  0  0  0  0  0  0  0  0  0  0
   -5.2624  -16.4612   14.0264 N   0  0  0  0  0  0  0  0  0  0  0  0
    4.0298  -10.7749   13.7899 C   0  0  0  0  0  0  0  0  0  0  0  0
    5.0540  -10.4294   13.0049 N   0  0  0  0  0  0  0  0  0  0  0  0
    6.3604  -10.6420   13.4523 C   0  0  0  0  0  0  0  0  0  0  0  0
    6.2838  -11.7395   14.1532 C   0  0  0  0  0  0  0  0  0  0  0  0
    4.9552  -11.6664   14.4746 N   0  0  0  0  0  0  0  0  0  0  0  0
    2.7514   -9.0016   14.9506 H   0  0  0  0  0  0  0  0  0  0  0  0
    3.4918  -10.4516   15.5680 H   0  0  0  0  0  0  0  0  0  0  0  0
    3.9052   -9.0359   13.9067 H   0  0  0  0  0  0  0  0  0  0  0  0
    1.6932  -11.9949   14.2170 H   0  0  0  0  0  0  0  0  0  0  0  0
   -0.6849  -11.4067   12.6329 H   0  0  0  0  0  0  0  0  0  0  0  0
    0.3954  -12.5815   12.0705 H   0  0  0  0  0  0  0  0  0  0  0  0
   -0.6737  -14.7054   13.1385 H   0  0  0  0  0  0  0  0  0  0  0  0
   -2.4684  -17.8854   14.7056 H   0  0  0  0  0  0  0  0  0  0  0  0
   -4.4921  -19.1178   15.7343 H   0  0  0  0  0  0  0  0  0  0  0  0
   -7.5875  -17.2030   14.5249 H   0  0  0  0  0  0  0  0  0  0  0  0
   -7.7691  -18.1764   16.6664 H   0  0  0  0  0  0  0  0  0  0  0  0
   -6.7473  -19.5465   16.2690 H   0  0  0  0  0  0  0  0  0  0  0  0
   -8.9330  -20.4576   15.8872 H   0  0  0  0  0  0  0  0  0  0  0  0
   -9.5212  -18.9006   15.2403 H   0  0  0  0  0  0  0  0  0  0  0  0
   -9.1393  -19.9198   13.1887 H   0  0  0  0  0  0  0  0  0  0  0  0
   -7.9317  -21.0215   13.8345 H   0  0  0  0  0  0  0  0  0  0  0  0
   -6.2610  -19.6019   13.2191 H   0  0  0  0  0  0  0  0  0  0  0  0
   -7.4393  -18.4710   12.5625 H   0  0  0  0  0  0  0  0  0  0  0  0
    7.2425  -10.1940   13.0423 H   0  0  0  0  0  0  0  0  0  0  0  0
    7.0586  -12.3624   14.5605 H   0  0  0  0  0  0  0  0  0  0  0  0
    4.5476  -12.0993   15.2557 H   0  0  0  0  0  0  0  0  0  0  0  0
  1  2  1  0
  2  3  1  0
  3  4  1  0
  4  5  1  0
  5  6  2  0
  5  7  1  0
  7  8  1  0
  8  9  2  0
  9 10  1  0
 10 11  1  0
 11 12  1  0
 12 13  1  0
 13 14  1  0
 14 15  1  0
 10 16  1  0
  2 17  1  0
 17 18  2  0
 18 19  1  0
 19 20  2  0
 20 21  1  0
 16  7  2  0
 21 17  1  0
 15 11  1  0
  1 22  1  0
  1 23  1  0
  1 24  1  0
  2 25  1  0
  3 26  1  0
  3 27  1  0
  4 28  1  0
  8 29  1  0
  9 30  1  0
 11 31  1  0
 12 32  1  0
 12 33  1  0
 13 34  1  0
 13 35  1  0
 14 36  1  0
 14 37  1  0
 15 38  1  0
 15 39  1  0
 19 40  1  0
 20 41  1  0
 21 42  1  0
M  END
>  <Energy>  (197) 
1226.0049644010803

>  <compound_id>  (197) 
17998

>  <target_id>  (197) 
1

>  <reference_id>  (197) 
112

>  <inspiration_ids>  (197) 
[112, 63]

>  <energy_score>  (197) 
1155.6588087755085

>  <distance_score>  (197) 
10.51057202224295

>  <path>  (197) 
/opt/xchem-fragalysis-2/maxwin/BulkDock/SCRATCH/511024/C17998-P112/C17998-P112.minimised.mol

>  <scratch_subdir>  (197) 
/opt/xchem-fragalysis-2/maxwin/BulkDock/SCRATCH/511024/C17998-P112

>  <fragmenstein_runtime>  (197) 
16.350183725357056

>  <fragmenstein_outcome>  (197) 
too moved

>  <fragmenstein_mode>  (197) 
expansion

>  <fragmenstein_error>  (197) 


$$$$
C17998-P63
     RDKit          3D

 42 44  0  0  0  0  0  0  0  0999 V2000
    4.7413  -18.4995   15.2789 C   0  0  0  0  0  0  0  0  0  0  0  0
    5.3197  -18.4111   13.8642 C   0  0  0  0  0  0  0  0  0  0  0  0
    4.2318  -18.6027   12.7389 C   0  0  0  0  0  0  0  0  0  0  0  0
    2.9997  -19.4164   12.9733 N   0  0  0  0  0  0  0  0  0  0  0  0
    2.5252  -20.6435   12.3337 C   0  0  0  0  0  0  0  0  0  0  0  0
    3.0474  -21.3474   11.5161 O   0  0  0  0  0  0  0  0  0  0  0  0
    1.0606  -21.0640   12.7118 C   0  0  0  0  0  0  0  0  0  0  0  0
    0.2560  -20.7790   13.8603 C   0  0  0  0  0  0  0  0  0  0  0  0
   -0.9418  -21.4589   13.6964 C   0  0  0  0  0  0  0  0  0  0  0  0
   -0.8635  -22.0907   12.4896 N   0  0  0  0  0  0  0  0  0  0  0  0
   -1.8225  -22.9809   11.8470 C   0  0  0  0  0  0  0  0  0  0  0  0
   -3.2050  -22.4212   11.4891 C   0  0  0  0  0  0  0  0  0  0  0  0
   -4.0663  -23.6660   11.2059 C   0  0  0  0  0  0  0  0  0  0  0  0
   -3.3081  -24.8533   11.7850 C   0  0  0  0  0  0  0  0  0  0  0  0
   -2.1896  -24.2462   12.6278 C   0  0  0  0  0  0  0  0  0  0  0  0
    0.3408  -21.8881   11.8989 N   0  0  0  0  0  0  0  0  0  0  0  0
    6.2232  -17.1262   13.7244 C   0  0  0  0  0  0  0  0  0  0  0  0
    6.0939  -16.0866   12.9152 N   0  0  0  0  0  0  0  0  0  0  0  0
    7.1855  -15.2645   13.1140 C   0  0  0  0  0  0  0  0  0  0  0  0
    7.9656  -15.7567   14.1254 C   0  0  0  0  0  0  0  0  0  0  0  0
    7.3596  -16.9310   14.4981 N   0  0  0  0  0  0  0  0  0  0  0  0
    4.1095  -17.6443   15.5239 H   0  0  0  0  0  0  0  0  0  0  0  0
    5.5427  -18.5264   16.0260 H   0  0  0  0  0  0  0  0  0  0  0  0
    4.1519  -19.4125   15.4102 H   0  0  0  0  0  0  0  0  0  0  0  0
    6.0075  -19.2630   13.7600 H   0  0  0  0  0  0  0  0  0  0  0  0
    3.8659  -17.6265   12.4276 H   0  0  0  0  0  0  0  0  0  0  0  0
    4.7252  -19.0313   11.8580 H   0  0  0  0  0  0  0  0  0  0  0  0
    2.2579  -19.0374   13.5581 H   0  0  0  0  0  0  0  0  0  0  0  0
    0.5350  -20.1813   14.7153 H   0  0  0  0  0  0  0  0  0  0  0  0
   -1.8189  -21.5378   14.3232 H   0  0  0  0  0  0  0  0  0  0  0  0
   -1.3438  -23.2959   10.9071 H   0  0  0  0  0  0  0  0  0  0  0  0
   -3.1596  -21.7565   10.6200 H   0  0  0  0  0  0  0  0  0  0  0  0
   -3.6200  -21.8396   12.3173 H   0  0  0  0  0  0  0  0  0  0  0  0
   -5.0542  -23.5980   11.6606 H   0  0  0  0  0  0  0  0  0  0  0  0
   -4.2114  -23.7993   10.1282 H   0  0  0  0  0  0  0  0  0  0  0  0
   -3.9467  -25.5342   12.3518 H   0  0  0  0  0  0  0  0  0  0  0  0
   -2.8709  -25.4377   10.9657 H   0  0  0  0  0  0  0  0  0  0  0  0
   -2.5415  -24.0079   13.6363 H   0  0  0  0  0  0  0  0  0  0  0  0
   -1.3403  -24.9300   12.7264 H   0  0  0  0  0  0  0  0  0  0  0  0
    7.3275  -14.3651   12.5283 H   0  0  0  0  0  0  0  0  0  0  0  0
    8.8833  -15.4118   14.5803 H   0  0  0  0  0  0  0  0  0  0  0  0
    7.7005  -17.5801   15.1941 H   0  0  0  0  0  0  0  0  0  0  0  0
  1  2  1  0
  2  3  1  0
  3  4  1  0
  4  5  1  0
  5  6  2  0
  5  7  1  0
  7  8  1  0
  8  9  2  0
  9 10  1  0
 10 11  1  0
 11 12  1  0
 12 13  1  0
 13 14  1  0
 14 15  1  0
 10 16  1  0
  2 17  1  0
 17 18  2  0
 18 19  1  0
 19 20  2  0
 20 21  1  0
 16  7  2  0
 21 17  1  0
 15 11  1  0
  1 22  1  0
  1 23  1  0
  1 24  1  0
  2 25  1  0
  3 26  1  0
  3 27  1  0
  4 28  1  0
  8 29  1  0
  9 30  1  0
 11 31  1  0
 12 32  1  0
 12 33  1  0
 13 34  1  0
 13 35  1  0
 14 36  1  0
 14 37  1  0
 15 38  1  0
 15 39  1  0
 19 40  1  0
 20 41  1  0
 21 42  1  0
M  END
>  <Energy>  (198) 
72.058047992759526

>  <compound_id>  (198) 
17998

>  <target_id>  (198) 
1

>  <reference_id>  (198) 
63

>  <inspiration_ids>  (198) 
[112, 63]

>  <energy_score>  (198) 
1.7118923671834523

>  <distance_score>  (198) 
13.187928562540456

>  <path>  (198) 
/opt/xchem-fragalysis-2/maxwin/BulkDock/SCRATCH/511024/C17998-P63/C17998-P63.minimised.mol

>  <scratch_subdir>  (198) 
/opt/xchem-fragalysis-2/maxwin/BulkDock/SCRATCH/511024/C17998-P63

>  <fragmenstein_runtime>  (198) 
33.0403470993042

>  <fragmenstein_outcome>  (198) 
too moved

>  <fragmenstein_mode>  (198) 
expansion

>  <fragmenstein_error>  (198) 


$$$$
C48747-P112
     RDKit          3D

 45 47  0  0  0  0  0  0  0  0999 V2000
    2.4712  -13.7754    9.2781 C   0  0  0  0  0  0  0  0  0  0  0  0
    1.1855  -13.1438    9.6789 N   0  0  0  0  0  0  0  0  0  0  0  0
    2.1612  -12.3807   10.7465 C   0  0  0  0  0  0  0  0  0  0  0  0
    3.0414  -11.1039   10.3370 C   0  0  0  0  0  0  0  0  0  0  0  0
    3.8718  -10.3702   11.4005 C   0  0  0  0  0  0  0  0  0  0  0  0
    5.0794  -10.7077   11.9925 C   0  0  0  0  0  0  0  0  0  0  0  0
    5.4829   -9.6048   12.7139 N   0  0  0  0  0  0  0  0  0  0  0  0
    4.5338   -8.6413   12.5393 C   0  0  0  0  0  0  0  0  0  0  0  0
    3.5649   -9.0641   11.7561 N   0  0  0  0  0  0  0  0  0  0  0  0
    0.1507  -14.1880    9.8913 C   0  0  0  0  0  0  0  0  0  0  0  0
   -0.1573  -14.7896   10.8900 O   0  0  0  0  0  0  0  0  0  0  0  0
   -0.7096  -14.4371    8.5740 C   0  0  0  0  0  0  0  0  0  0  0  0
   -1.2894  -15.8642    8.3174 C   0  0  0  0  0  0  0  0  0  0  0  0
   -0.4720  -16.9787    8.0127 C   0  0  0  0  0  0  0  0  0  0  0  0
   -1.3084  -17.9382    7.5087 C   0  0  0  0  0  0  0  0  0  0  0  0
   -2.5926  -17.4704    7.6461 N   0  0  0  0  0  0  0  0  0  0  0  0
   -3.7243  -18.2432    7.1291 C   0  0  0  0  0  0  0  0  0  0  0  0
   -3.7823  -19.6584    7.7311 C   0  0  0  0  0  0  0  0  0  0  0  0
   -5.2047  -20.1205    7.5364 C   0  0  0  0  0  0  0  0  0  0  0  0
   -6.0319  -18.8621    7.7497 C   0  0  0  0  0  0  0  0  0  0  0  0
   -5.1827  -17.7414    7.1369 C   0  0  0  0  0  0  0  0  0  0  0  0
   -2.6053  -16.1601    8.0729 N   0  0  0  0  0  0  0  0  0  0  0  0
    2.2094  -14.4649    8.4612 H   0  0  0  0  0  0  0  0  0  0  0  0
    2.9029  -14.4530   10.0288 H   0  0  0  0  0  0  0  0  0  0  0  0
    3.1869  -13.1034    8.8004 H   0  0  0  0  0  0  0  0  0  0  0  0
    2.6987  -13.0793   11.4025 H   0  0  0  0  0  0  0  0  0  0  0  0
    1.4041  -11.9766   11.4370 H   0  0  0  0  0  0  0  0  0  0  0  0
    3.7489  -11.3683    9.5447 H   0  0  0  0  0  0  0  0  0  0  0  0
    2.3536  -10.3761    9.8868 H   0  0  0  0  0  0  0  0  0  0  0  0
    5.6937  -11.5937   11.9323 H   0  0  0  0  0  0  0  0  0  0  0  0
    6.3282   -9.5029   13.2665 H   0  0  0  0  0  0  0  0  0  0  0  0
    4.6017   -7.6646   12.9994 H   0  0  0  0  0  0  0  0  0  0  0  0
   -0.0771  -14.1948    7.7102 H   0  0  0  0  0  0  0  0  0  0  0  0
   -1.5344  -13.7192    8.5599 H   0  0  0  0  0  0  0  0  0  0  0  0
    0.6037  -17.0452    8.0815 H   0  0  0  0  0  0  0  0  0  0  0  0
   -1.0991  -18.9256    7.1252 H   0  0  0  0  0  0  0  0  0  0  0  0
   -3.4680  -18.3586    6.0637 H   0  0  0  0  0  0  0  0  0  0  0  0
   -3.5324  -19.6560    8.7946 H   0  0  0  0  0  0  0  0  0  0  0  0
   -3.0779  -20.3405    7.2421 H   0  0  0  0  0  0  0  0  0  0  0  0
   -5.3497  -20.5049    6.5205 H   0  0  0  0  0  0  0  0  0  0  0  0
   -5.4036  -20.9220    8.2491 H   0  0  0  0  0  0  0  0  0  0  0  0
   -6.1943  -18.6980    8.8163 H   0  0  0  0  0  0  0  0  0  0  0  0
   -7.0150  -18.9258    7.2737 H   0  0  0  0  0  0  0  0  0  0  0  0
   -5.5005  -17.6101    6.0931 H   0  0  0  0  0  0  0  0  0  0  0  0
   -5.3396  -16.7689    7.5989 H   0  0  0  0  0  0  0  0  0  0  0  0
  1  2  1  0
  2  3  1  0
  3  4  1  0
  4  5  1  0
  5  6  2  0
  6  7  1  0
  7  8  1  0
  8  9  2  0
  2 10  1  0
 10 11  2  0
 10 12  1  0
 12 13  1  0
 13 14  1  0
 14 15  2  0
 15 16  1  0
 16 17  1  0
 17 18  1  0
 18 19  1  0
 19 20  1  0
 20 21  1  0
 16 22  1  0
  9  5  1  0
 22 13  2  0
 21 17  1  0
  1 23  1  0
  1 24  1  0
  1 25  1  0
  3 26  1  0
  3 27  1  0
  4 28  1  0
  4 29  1  0
  6 30  1  0
  7 31  1  0
  8 32  1  0
 12 33  1  0
 12 34  1  0
 14 35  1  0
 15 36  1  0
 17 37  1  0
 18 38  1  0
 18 39  1  0
 19 40  1  0
 19 41  1  0
 20 42  1  0
 20 43  1  0
 21 44  1  0
 21 45  1  0
M  END
>  <Energy>  (199) 
132.36894869561323

>  <compound_id>  (199) 
48747

>  <target_id>  (199) 
1

>  <reference_id>  (199) 
112

>  <inspiration_ids>  (199) 
[112, 63]

>  <energy_score>  (199) 
63.856635045779

>  <distance_score>  (199) 
13.044245057886963

>  <path>  (199) 
/opt/xchem-fragalysis-2/maxwin/BulkDock/SCRATCH/511024/C48747-P112/C48747-P112.minimised.mol

>  <scratch_subdir>  (199) 
/opt/xchem-fragalysis-2/maxwin/BulkDock/SCRATCH/511024/C48747-P112

>  <fragmenstein_runtime>  (199) 
23.921122789382935

>  <fragmenstein_outcome>  (199) 
too moved

>  <fragmenstein_mode>  (199) 
expansion

>  <fragmenstein_error>  (199) 


$$$$
C48747-P63
     RDKit          3D

 45 47  0  0  0  0  0  0  0  0999 V2000
   -0.5650  -16.0613   11.2065 C   0  0  0  0  0  0  0  0  0  0  0  0
   -1.7993  -14.8837   11.4951 N   0  0  0  0  0  0  0  0  0  0  0  0
   -0.5464  -14.0825   10.4152 C   0  0  0  0  0  0  0  0  0  0  0  0
    0.1328  -12.7132   11.0715 C   0  0  0  0  0  0  0  0  0  0  0  0
    1.3280  -11.9396   10.4932 C   0  0  0  0  0  0  0  0  0  0  0  0
    2.2924  -12.2143    9.5472 C   0  0  0  0  0  0  0  0  0  0  0  0
    3.1596  -11.1415    9.5524 N   0  0  0  0  0  0  0  0  0  0  0  0
    2.7102  -10.2409   10.4709 C   0  0  0  0  0  0  0  0  0  0  0  0
    1.6210  -10.6848   11.0545 N   0  0  0  0  0  0  0  0  0  0  0  0
   -3.6375  -15.3374   11.2653 C   0  0  0  0  0  0  0  0  0  0  0  0
   -3.9232  -15.0781   10.0729 O   0  0  0  0  0  0  0  0  0  0  0  0
   -5.6293  -16.0013   12.4425 C   0  0  0  0  0  0  0  0  0  0  0  0
   -6.9317  -17.3811   13.6994 C   0  0  0  0  0  0  0  0  0  0  0  0
   -8.4359  -17.7812   15.2294 C   0  0  0  0  0  0  0  0  0  0  0  0
   -8.6981  -19.3421   16.4437 C   0  0  0  0  0  0  0  0  0  0  0  0
   -7.8469  -20.7936   15.1152 N   0  0  0  0  0  0  0  0  0  0  0  0
   -8.9354  -21.7612   14.2925 C   0  0  0  0  0  0  0  0  0  0  0  0
   -8.7949  -21.9470   12.7463 C   0  0  0  0  0  0  0  0  0  0  0  0
   -9.8691  -22.9696   12.3971 C   0  0  0  0  0  0  0  0  0  0  0  0
   -9.8513  -23.9303   13.5671 C   0  0  0  0  0  0  0  0  0  0  0  0
   -9.2401  -23.1312   14.7192 C   0  0  0  0  0  0  0  0  0  0  0  0
   -6.7508  -19.0816   14.2595 N   0  0  0  0  0  0  0  0  0  0  0  0
   -0.5557  -16.2611   10.1199 H   0  0  0  0  0  0  0  0  0  0  0  0
   -0.4539  -17.0723   11.5963 H   0  0  0  0  0  0  0  0  0  0  0  0
    0.3507  -15.6389   11.6533 H   0  0  0  0  0  0  0  0  0  0  0  0
    0.3589  -14.6393   10.1232 H   0  0  0  0  0  0  0  0  0  0  0  0
   -1.0159  -13.9438    9.4251 H   0  0  0  0  0  0  0  0  0  0  0  0
   -0.5849  -11.9006   11.0921 H   0  0  0  0  0  0  0  0  0  0  0  0
    0.2881  -12.9620   12.1227 H   0  0  0  0  0  0  0  0  0  0  0  0
    2.4559  -13.0643    8.9004 H   0  0  0  0  0  0  0  0  0  0  0  0
    3.9803  -11.0357    8.9724 H   0  0  0  0  0  0  0  0  0  0  0  0
    3.2058   -9.3006   10.6706 H   0  0  0  0  0  0  0  0  0  0  0  0
   -6.0087  -15.0254   12.7713 H   0  0  0  0  0  0  0  0  0  0  0  0
   -6.4172  -16.0799   11.6527 H   0  0  0  0  0  0  0  0  0  0  0  0
   -8.9013  -16.8553   15.5747 H   0  0  0  0  0  0  0  0  0  0  0  0
   -9.5623  -19.9394   16.4358 H   0  0  0  0  0  0  0  0  0  0  0  0
   -9.8698  -21.2935   14.5927 H   0  0  0  0  0  0  0  0  0  0  0  0
   -7.8126  -22.3420   12.5073 H   0  0  0  0  0  0  0  0  0  0  0  0
   -8.9322  -21.0524   12.1314 H   0  0  0  0  0  0  0  0  0  0  0  0
   -9.6765  -23.4667   11.4422 H   0  0  0  0  0  0  0  0  0  0  0  0
  -10.8451  -22.4817   12.3371 H   0  0  0  0  0  0  0  0  0  0  0  0
  -10.8569  -24.2983   13.7828 H   0  0  0  0  0  0  0  0  0  0  0  0
   -9.2641  -24.8202   13.3264 H   0  0  0  0  0  0  0  0  0  0  0  0
   -9.9114  -23.0672   15.5143 H   0  0  0  0  0  0  0  0  0  0  0  0
   -8.4125  -23.4977   15.2401 H   0  0  0  0  0  0  0  0  0  0  0  0
  1  2  1  0
  2  3  1  0
  3  4  1  0
  4  5  1  0
  5  6  2  0
  6  7  1  0
  7  8  1  0
  8  9  2  0
  2 10  1  0
 10 11  2  0
 10 12  1  0
 12 13  1  0
 13 14  1  0
 14 15  2  0
 15 16  1  0
 16 17  1  0
 17 18  1  0
 18 19  1  0
 19 20  1  0
 20 21  1  0
 16 22  1  0
  9  5  1  0
 22 13  2  0
 21 17  1  0
  1 23  1  0
  1 24  1  0
  1 25  1  0
  3 26  1  0
  3 27  1  0
  4 28  1  0
  4 29  1  0
  6 30  1  0
  7 31  1  0
  8 32  1  0
 12 33  1  0
 12 34  1  0
 14 35  1  0
 15 36  1  0
 17 37  1  0
 18 38  1  0
 18 39  1  0
 19 40  1  0
 19 41  1  0
 20 42  1  0
 20 43  1  0
 21 44  1  0
 21 45  1  0
M  END
>  <Energy>  (200) 
1970.8913007276119

>  <compound_id>  (200) 
48747

>  <target_id>  (200) 
1

>  <reference_id>  (200) 
63

>  <inspiration_ids>  (200) 
[112, 63]

>  <energy_score>  (200) 
1902.37898707781

>  <distance_score>  (200) 
11.044431151147524

>  <path>  (200) 
/opt/xchem-fragalysis-2/maxwin/BulkDock/SCRATCH/511024/C48747-P63/C48747-P63.minimised.mol

>  <scratch_subdir>  (200) 
/opt/xchem-fragalysis-2/maxwin/BulkDock/SCRATCH/511024/C48747-P63

>  <fragmenstein_runtime>  (200) 
13.029329299926758

>  <fragmenstein_outcome>  (200) 
too moved

>  <fragmenstein_mode>  (200) 
expansion

>  <fragmenstein_error>  (200) 


$$$$
C48748-P112
     RDKit          3D

 40 42  0  0  0  0  0  0  0  0999 V2000
   -3.9401  -15.8264   16.0303 O   0  0  0  0  0  0  0  0  0  0  0  0
   -3.2543  -16.1529   15.0878 C   0  0  0  0  0  0  0  0  0  0  0  0
   -3.5290  -17.4685   14.0589 N   0  0  0  0  0  0  0  0  0  0  0  0
   -4.9703  -18.7075   13.8825 C   0  0  0  0  0  0  0  0  0  0  0  0
   -4.3519  -20.0792   12.8337 C   0  0  0  0  0  0  0  0  0  0  0  0
   -5.1888  -21.0098   12.4454 N   0  0  0  0  0  0  0  0  0  0  0  0
   -5.8968  -20.1966   11.7345 N   0  0  0  0  0  0  0  0  0  0  0  0
   -5.7756  -20.6985   10.2941 C   0  0  0  0  0  0  0  0  0  0  0  0
   -4.8338  -20.4048    9.0357 C   0  0  0  0  0  0  0  0  0  0  0  0
   -4.8084  -21.6193    8.1016 C   0  0  0  0  0  0  0  0  0  0  0  0
   -5.1525  -22.8193    8.9429 C   0  0  0  0  0  0  0  0  0  0  0  0
   -5.2367  -22.2666   10.3477 C   0  0  0  0  0  0  0  0  0  0  0  0
   -6.1112  -18.8975   12.6648 C   0  0  0  0  0  0  0  0  0  0  0  0
   -1.6806  -14.7104   14.6418 C   0  0  0  0  0  0  0  0  0  0  0  0
   -1.3949  -13.5404   13.7790 O   0  0  0  0  0  0  0  0  0  0  0  0
   -0.5576  -14.2716   12.8559 C   0  0  0  0  0  0  0  0  0  0  0  0
    0.3441  -12.6611   12.6155 C   0  0  0  0  0  0  0  0  0  0  0  0
    1.4231  -12.3269   11.8527 C   0  0  0  0  0  0  0  0  0  0  0  0
    1.8149  -11.0395   12.1091 N   0  0  0  0  0  0  0  0  0  0  0  0
    0.8408  -10.5035   12.8767 C   0  0  0  0  0  0  0  0  0  0  0  0
   -0.0530  -11.4231   13.1680 N   0  0  0  0  0  0  0  0  0  0  0  0
   -2.8330  -17.5539   13.4920 H   0  0  0  0  0  0  0  0  0  0  0  0
   -3.3747  -20.4805   12.8872 H   0  0  0  0  0  0  0  0  0  0  0  0
   -6.7541  -20.3896    9.9181 H   0  0  0  0  0  0  0  0  0  0  0  0
   -5.1801  -19.5448    8.4469 H   0  0  0  0  0  0  0  0  0  0  0  0
   -3.7987  -20.2201    9.3462 H   0  0  0  0  0  0  0  0  0  0  0  0
   -3.8104  -21.7250    7.6597 H   0  0  0  0  0  0  0  0  0  0  0  0
   -5.4947  -21.5063    7.2577 H   0  0  0  0  0  0  0  0  0  0  0  0
   -6.0780  -23.2907    8.6106 H   0  0  0  0  0  0  0  0  0  0  0  0
   -4.3759  -23.5893    8.8732 H   0  0  0  0  0  0  0  0  0  0  0  0
   -4.2096  -22.2751   10.7342 H   0  0  0  0  0  0  0  0  0  0  0  0
   -5.7740  -22.9449   11.0236 H   0  0  0  0  0  0  0  0  0  0  0  0
   -6.7521  -18.1467   12.2226 H   0  0  0  0  0  0  0  0  0  0  0  0
   -1.2116  -14.1993   15.5548 H   0  0  0  0  0  0  0  0  0  0  0  0
   -0.8354  -12.8585   14.1704 H   0  0  0  0  0  0  0  0  0  0  0  0
   -1.0952  -14.4032   11.8718 H   0  0  0  0  0  0  0  0  0  0  0  0
    0.2566  -14.9276   12.5181 H   0  0  0  0  0  0  0  0  0  0  0  0
    1.8537  -12.8659   11.0580 H   0  0  0  0  0  0  0  0  0  0  0  0
    2.5812  -10.5411   11.6790 H   0  0  0  0  0  0  0  0  0  0  0  0
    0.8100   -9.4651   13.1758 H   0  0  0  0  0  0  0  0  0  0  0  0
  1  2  2  0
  2  3  1  0
  3  4  1  0
  4  5  1  0
  5  6  2  0
  6  7  1  0
  7  8  1  0
  8  9  1  0
  9 10  1  0
 10 11  1  0
 11 12  1  0
  7 13  1  0
  2 14  1  0
 14 15  1  0
 14 16  1  0
 16 17  1  0
 17 18  2  0
 18 19  1  0
 19 20  1  0
 20 21  2  0
 13  4  2  0
 21 17  1  0
 12  8  1  0
  3 22  1  0
  5 23  1  0
  8 24  1  0
  9 25  1  0
  9 26  1  0
 10 27  1  0
 10 28  1  0
 11 29  1  0
 11 30  1  0
 12 31  1  0
 12 32  1  0
 13 33  1  0
 14 34  1  0
 15 35  1  0
 16 36  1  0
 16 37  1  0
 18 38  1  0
 19 39  1  0
 20 40  1  0
M  END
>  <Energy>  (201) 
829.25865339076915

>  <compound_id>  (201) 
48748

>  <target_id>  (201) 
1

>  <reference_id>  (201) 
112

>  <inspiration_ids>  (201) 
[112, 63]

>  <energy_score>  (201) 
760.2355613706873

>  <distance_score>  (201) 
12.616988414376271

>  <path>  (201) 
/opt/xchem-fragalysis-2/maxwin/BulkDock/SCRATCH/511024/C48748-P112/C48748-P112.minimised.mol

>  <scratch_subdir>  (201) 
/opt/xchem-fragalysis-2/maxwin/BulkDock/SCRATCH/511024/C48748-P112

>  <fragmenstein_runtime>  (201) 
15.417277812957764

>  <fragmenstein_outcome>  (201) 
too moved

>  <fragmenstein_mode>  (201) 
expansion

>  <fragmenstein_error>  (201) 


$$$$
C48748-P63
     RDKit          3D

 40 42  0  0  0  0  0  0  0  0999 V2000
    1.4472  -14.8950   16.5270 O   0  0  0  0  0  0  0  0  0  0  0  0
    0.7799  -13.9339   16.6386 C   0  0  0  0  0  0  0  0  0  0  0  0
   -1.1107  -13.7688   16.9965 N   0  0  0  0  0  0  0  0  0  0  0  0
   -2.3998  -15.0383   17.1184 C   0  0  0  0  0  0  0  0  0  0  0  0
   -3.0896  -15.3639   15.9331 C   0  0  0  0  0  0  0  0  0  0  0  0
   -4.1261  -16.2731   15.9213 N   0  0  0  0  0  0  0  0  0  0  0  0
   -4.6526  -16.1791   17.1628 N   0  0  0  0  0  0  0  0  0  0  0  0
   -6.1590  -15.8436   17.4284 C   0  0  0  0  0  0  0  0  0  0  0  0
   -7.0843  -16.7097   18.4215 C   0  0  0  0  0  0  0  0  0  0  0  0
   -8.4941  -16.3230   17.9836 C   0  0  0  0  0  0  0  0  0  0  0  0
   -8.3872  -14.8064   17.8899 C   0  0  0  0  0  0  0  0  0  0  0  0
   -6.9704  -14.4910   17.3468 C   0  0  0  0  0  0  0  0  0  0  0  0
   -3.4580  -16.3619   17.8539 C   0  0  0  0  0  0  0  0  0  0  0  0
    1.8464  -12.3932   16.2033 C   0  0  0  0  0  0  0  0  0  0  0  0
    2.1049  -13.3536   17.8595 O   0  0  0  0  0  0  0  0  0  0  0  0
    3.2885  -11.2696   16.6580 C   0  0  0  0  0  0  0  0  0  0  0  0
    4.0667  -10.4679   15.6198 C   0  0  0  0  0  0  0  0  0  0  0  0
    5.3924  -10.6203   15.2444 C   0  0  0  0  0  0  0  0  0  0  0  0
    5.7309   -9.4848   14.5538 N   0  0  0  0  0  0  0  0  0  0  0  0
    4.6287   -8.6827   14.5297 C   0  0  0  0  0  0  0  0  0  0  0  0
    3.6181   -9.2367   15.1653 N   0  0  0  0  0  0  0  0  0  0  0  0
   -1.3864  -12.8173   17.1184 H   0  0  0  0  0  0  0  0  0  0  0  0
   -2.5976  -15.1478   15.0291 H   0  0  0  0  0  0  0  0  0  0  0  0
   -6.5034  -16.0501   16.4138 H   0  0  0  0  0  0  0  0  0  0  0  0
   -6.9476  -17.7943   18.4337 H   0  0  0  0  0  0  0  0  0  0  0  0
   -6.9846  -16.4091   19.4674 H   0  0  0  0  0  0  0  0  0  0  0  0
   -8.7385  -16.7600   17.0095 H   0  0  0  0  0  0  0  0  0  0  0  0
   -9.2536  -16.6359   18.7057 H   0  0  0  0  0  0  0  0  0  0  0  0
   -8.4940  -14.3640   18.8877 H   0  0  0  0  0  0  0  0  0  0  0  0
   -9.1714  -14.3810   17.2559 H   0  0  0  0  0  0  0  0  0  0  0  0
   -7.1307  -14.1888   16.3075 H   0  0  0  0  0  0  0  0  0  0  0  0
   -6.5238  -13.6221   17.8278 H   0  0  0  0  0  0  0  0  0  0  0  0
   -3.3347  -16.7416   18.8740 H   0  0  0  0  0  0  0  0  0  0  0  0
    1.9635  -12.7731   15.2182 H   0  0  0  0  0  0  0  0  0  0  0  0
    2.6974  -14.0592   17.5323 H   0  0  0  0  0  0  0  0  0  0  0  0
    4.0102  -11.7979   17.3028 H   0  0  0  0  0  0  0  0  0  0  0  0
    2.9225  -10.4765   17.3305 H   0  0  0  0  0  0  0  0  0  0  0  0
    6.1242  -11.3821   15.4707 H   0  0  0  0  0  0  0  0  0  0  0  0
    6.6421   -9.2633   14.1736 H   0  0  0  0  0  0  0  0  0  0  0  0
    4.6185   -7.7164   14.0444 H   0  0  0  0  0  0  0  0  0  0  0  0
  1  2  2  0
  2  3  1  0
  3  4  1  0
  4  5  1  0
  5  6  2  0
  6  7  1  0
  7  8  1  0
  8  9  1  0
  9 10  1  0
 10 11  1  0
 11 12  1  0
  7 13  1  0
  2 14  1  0
 14 15  1  0
 14 16  1  0
 16 17  1  0
 17 18  2  0
 18 19  1  0
 19 20  1  0
 20 21  2  0
 13  4  2  0
 21 17  1  0
 12  8  1  0
  3 22  1  0
  5 23  1  0
  8 24  1  0
  9 25  1  0
  9 26  1  0
 10 27  1  0
 10 28  1  0
 11 29  1  0
 11 30  1  0
 12 31  1  0
 12 32  1  0
 13 33  1  0
 14 34  1  0
 15 35  1  0
 16 36  1  0
 16 37  1  0
 18 38  1  0
 19 39  1  0
 20 40  1  0
M  END
>  <Energy>  (202) 
595.17889103106893

>  <compound_id>  (202) 
48748

>  <target_id>  (202) 
1

>  <reference_id>  (202) 
63

>  <inspiration_ids>  (202) 
[112, 63]

>  <energy_score>  (202) 
526.1557990109875

>  <distance_score>  (202) 
12.285490874133323

>  <path>  (202) 
/opt/xchem-fragalysis-2/maxwin/BulkDock/SCRATCH/511024/C48748-P63/C48748-P63.minimised.mol

>  <scratch_subdir>  (202) 
/opt/xchem-fragalysis-2/maxwin/BulkDock/SCRATCH/511024/C48748-P63

>  <fragmenstein_runtime>  (202) 
23.800124168395996

>  <fragmenstein_outcome>  (202) 
too moved

>  <fragmenstein_mode>  (202) 
expansion

>  <fragmenstein_error>  (202) 


$$$$
C17999-P112
     RDKit          3D

 40 42  0  0  0  0  0  0  0  0999 V2000
    3.1081  -19.5759   12.1740 C   0  0  0  0  0  0  0  0  0  0  0  0
    2.9192  -19.5692   13.6818 C   0  0  0  0  0  0  0  0  0  0  0  0
    1.5368  -19.2826   14.1739 N   0  0  0  0  0  0  0  0  0  0  0  0
    0.0977  -19.4215   13.2628 S   0  0  0  0  0  0  0  0  0  0  0  0
   -0.3331  -20.7917   13.0572 O   0  0  0  0  0  0  0  0  0  0  0  0
    0.4002  -18.5732   12.1340 O   0  0  0  0  0  0  0  0  0  0  0  0
   -1.6665  -18.3748   14.2254 C   0  0  0  0  0  0  0  0  0  0  0  0
   -1.7270  -18.5112   15.4148 C   0  0  0  0  0  0  0  0  0  0  0  0
   -3.1904  -18.2678   16.2278 N   0  0  0  0  0  0  0  0  0  0  0  0
   -3.9356  -17.4764   15.4877 N   0  0  0  0  0  0  0  0  0  0  0  0
   -5.4016  -17.4894   15.4624 C   0  0  0  0  0  0  0  0  0  0  0  0
   -6.1106  -18.6723   16.1929 C   0  0  0  0  0  0  0  0  0  0  0  0
   -7.2373  -19.1735   15.2787 C   0  0  0  0  0  0  0  0  0  0  0  0
   -7.4647  -18.0407   14.2978 C   0  0  0  0  0  0  0  0  0  0  0  0
   -6.0529  -17.5083   14.0642 C   0  0  0  0  0  0  0  0  0  0  0  0
   -2.9566  -17.1334   14.5217 C   0  0  0  0  0  0  0  0  0  0  0  0
    3.9052  -18.6006   14.3698 C   0  0  0  0  0  0  0  0  0  0  0  0
    5.2087  -18.4309   14.1938 N   0  0  0  0  0  0  0  0  0  0  0  0
    5.5932  -17.4841   15.1132 C   0  0  0  0  0  0  0  0  0  0  0  0
    4.5145  -17.0577   15.8473 C   0  0  0  0  0  0  0  0  0  0  0  0
    3.4635  -17.7636   15.3637 N   0  0  0  0  0  0  0  0  0  0  0  0
    2.9469  -18.5936   11.7217 H   0  0  0  0  0  0  0  0  0  0  0  0
    4.1323  -19.8727   11.9189 H   0  0  0  0  0  0  0  0  0  0  0  0
    2.4367  -20.2933   11.6913 H   0  0  0  0  0  0  0  0  0  0  0  0
    3.1704  -20.5725   14.0516 H   0  0  0  0  0  0  0  0  0  0  0  0
    1.3329  -19.7306   15.0702 H   0  0  0  0  0  0  0  0  0  0  0  0
   -0.8249  -18.5908   16.0043 H   0  0  0  0  0  0  0  0  0  0  0  0
   -5.6843  -16.5576   15.9704 H   0  0  0  0  0  0  0  0  0  0  0  0
   -5.4454  -19.5012   16.4515 H   0  0  0  0  0  0  0  0  0  0  0  0
   -6.5338  -18.3031   17.1351 H   0  0  0  0  0  0  0  0  0  0  0  0
   -6.9034  -20.0694   14.7431 H   0  0  0  0  0  0  0  0  0  0  0  0
   -8.1409  -19.4325   15.8382 H   0  0  0  0  0  0  0  0  0  0  0  0
   -7.9408  -18.3781   13.3729 H   0  0  0  0  0  0  0  0  0  0  0  0
   -8.0931  -17.2639   14.7486 H   0  0  0  0  0  0  0  0  0  0  0  0
   -6.0616  -16.5135   13.6075 H   0  0  0  0  0  0  0  0  0  0  0  0
   -5.5193  -18.1819   13.3842 H   0  0  0  0  0  0  0  0  0  0  0  0
   -2.9522  -16.0816   14.7381 H   0  0  0  0  0  0  0  0  0  0  0  0
    6.6259  -17.1751   15.1918 H   0  0  0  0  0  0  0  0  0  0  0  0
    4.3676  -16.3418   16.6398 H   0  0  0  0  0  0  0  0  0  0  0  0
    2.4833  -17.6858   15.6074 H   0  0  0  0  0  0  0  0  0  0  0  0
  1  2  1  0
  2  3  1  0
  3  4  1  0
  4  5  2  0
  4  6  2  0
  4  7  1  0
  7  8  1  0
  8  9  2  0
  9 10  1  0
 10 11  1  0
 11 12  1  0
 12 13  1  0
 13 14  1  0
 14 15  1  0
 10 16  1  0
  2 17  1  0
 17 18  2  0
 18 19  1  0
 19 20  2  0
 20 21  1  0
 16  7  2  0
 21 17  1  0
 15 11  1  0
  1 22  1  0
  1 23  1  0
  1 24  1  0
  2 25  1  0
  3 26  1  0
  8 27  1  0
 11 28  1  0
 12 29  1  0
 12 30  1  0
 13 31  1  0
 13 32  1  0
 14 33  1  0
 14 34  1  0
 15 35  1  0
 15 36  1  0
 16 37  1  0
 19 38  1  0
 20 39  1  0
 21 40  1  0
M  END
>  <Energy>  (203) 
276.99252925249493

>  <compound_id>  (203) 
17999

>  <target_id>  (203) 
1

>  <reference_id>  (203) 
112

>  <inspiration_ids>  (203) 
[112, 63]

>  <energy_score>  (203) 
286.66877808600964

>  <distance_score>  (203) 
13.643424060237463

>  <path>  (203) 
/opt/xchem-fragalysis-2/maxwin/BulkDock/SCRATCH/511024/C17999-P112/C17999-P112.minimised.mol

>  <scratch_subdir>  (203) 
/opt/xchem-fragalysis-2/maxwin/BulkDock/SCRATCH/511024/C17999-P112

>  <fragmenstein_runtime>  (203) 
20.388866424560547

>  <fragmenstein_outcome>  (203) 
too moved

>  <fragmenstein_mode>  (203) 
expansion

>  <fragmenstein_error>  (203) 


$$$$
C17999-P63
     RDKit          3D

 40 42  0  0  0  0  0  0  0  0999 V2000
    1.0397  -14.0320   17.7391 C   0  0  0  0  0  0  0  0  0  0  0  0
    1.7869  -14.5223   16.6435 C   0  0  0  0  0  0  0  0  0  0  0  0
    2.3421  -16.4776   16.6567 N   0  0  0  0  0  0  0  0  0  0  0  0
    1.2272  -18.2039   17.6535 S   0  0  0  0  0  0  0  0  0  0  0  0
    1.9185  -19.0966   18.5295 O   0  0  0  0  0  0  0  0  0  0  0  0
    1.2006  -19.0420   16.4562 O   0  0  0  0  0  0  0  0  0  0  0  0
   -0.8510  -18.0004   18.5856 C   0  0  0  0  0  0  0  0  0  0  0  0
   -1.0324  -17.2466   19.9777 C   0  0  0  0  0  0  0  0  0  0  0  0
   -2.2874  -17.1617   20.4764 N   0  0  0  0  0  0  0  0  0  0  0  0
   -3.0331  -17.8842   19.6398 N   0  0  0  0  0  0  0  0  0  0  0  0
   -4.4998  -18.0573   19.7726 C   0  0  0  0  0  0  0  0  0  0  0  0
   -4.9866  -19.5276   19.8707 C   0  0  0  0  0  0  0  0  0  0  0  0
   -6.3403  -19.5843   19.1599 C   0  0  0  0  0  0  0  0  0  0  0  0
   -6.1481  -18.6377   17.9948 C   0  0  0  0  0  0  0  0  0  0  0  0
   -5.3523  -17.4796   18.6034 C   0  0  0  0  0  0  0  0  0  0  0  0
   -2.2934  -18.2682   18.5395 C   0  0  0  0  0  0  0  0  0  0  0  0
    2.0488  -12.6794   15.6150 C   0  0  0  0  0  0  0  0  0  0  0  0
    2.8416  -11.7359   16.7879 N   0  0  0  0  0  0  0  0  0  0  0  0
    3.5612  -10.6971   16.3749 C   0  0  0  0  0  0  0  0  0  0  0  0
    3.9314  -10.8720   15.0188 C   0  0  0  0  0  0  0  0  0  0  0  0
    3.8094  -12.0871   15.2885 N   0  0  0  0  0  0  0  0  0  0  0  0
    1.7947  -13.7486   18.4063 H   0  0  0  0  0  0  0  0  0  0  0  0
    0.5478  -13.3997   17.0933 H   0  0  0  0  0  0  0  0  0  0  0  0
    0.0554  -13.7777   18.0746 H   0  0  0  0  0  0  0  0  0  0  0  0
    2.6890  -14.6808   17.3674 H   0  0  0  0  0  0  0  0  0  0  0  0
    2.6591  -16.9180   15.7782 H   0  0  0  0  0  0  0  0  0  0  0  0
   -0.2076  -16.8361   20.5514 H   0  0  0  0  0  0  0  0  0  0  0  0
   -4.7691  -17.5252   20.6945 H   0  0  0  0  0  0  0  0  0  0  0  0
   -5.0632  -19.8543   20.9127 H   0  0  0  0  0  0  0  0  0  0  0  0
   -4.2998  -20.2087   19.3672 H   0  0  0  0  0  0  0  0  0  0  0  0
   -6.5948  -20.5960   18.8352 H   0  0  0  0  0  0  0  0  0  0  0  0
   -7.1319  -19.2210   19.8251 H   0  0  0  0  0  0  0  0  0  0  0  0
   -7.0957  -18.3070   17.5603 H   0  0  0  0  0  0  0  0  0  0  0  0
   -5.5597  -19.1213   17.2064 H   0  0  0  0  0  0  0  0  0  0  0  0
   -4.7620  -16.9648   17.8397 H   0  0  0  0  0  0  0  0  0  0  0  0
   -6.0588  -16.7492   19.0173 H   0  0  0  0  0  0  0  0  0  0  0  0
   -3.0406  -18.5717   17.8251 H   0  0  0  0  0  0  0  0  0  0  0  0
    3.5617   -9.9031   17.1059 H   0  0  0  0  0  0  0  0  0  0  0  0
    4.4792  -10.4672   14.1688 H   0  0  0  0  0  0  0  0  0  0  0  0
    4.4293  -12.6193   14.7054 H   0  0  0  0  0  0  0  0  0  0  0  0
  1  2  1  0
  2  3  1  0
  3  4  1  0
  4  5  2  0
  4  6  2  0
  4  7  1  0
  7  8  1  0
  8  9  2  0
  9 10  1  0
 10 11  1  0
 11 12  1  0
 12 13  1  0
 13 14  1  0
 14 15  1  0
 10 16  1  0
  2 17  1  0
 17 18  2  0
 18 19  1  0
 19 20  2  0
 20 21  1  0
 16  7  2  0
 21 17  1  0
 15 11  1  0
  1 22  1  0
  1 23  1  0
  1 24  1  0
  2 25  1  0
  3 26  1  0
  8 27  1  0
 11 28  1  0
 12 29  1  0
 12 30  1  0
 13 31  1  0
 13 32  1  0
 14 33  1  0
 14 34  1  0
 15 35  1  0
 15 36  1  0
 16 37  1  0
 19 38  1  0
 20 39  1  0
 21 40  1  0
M  END
>  <Energy>  (204) 
715.21220357842697

>  <compound_id>  (204) 
17999

>  <target_id>  (204) 
1

>  <reference_id>  (204) 
63

>  <inspiration_ids>  (204) 
[112, 63]

>  <energy_score>  (204) 
724.8884524119394

>  <distance_score>  (204) 
12.971819274805453

>  <path>  (204) 
/opt/xchem-fragalysis-2/maxwin/BulkDock/SCRATCH/511024/C17999-P63/C17999-P63.minimised.mol

>  <scratch_subdir>  (204) 
/opt/xchem-fragalysis-2/maxwin/BulkDock/SCRATCH/511024/C17999-P63

>  <fragmenstein_runtime>  (204) 
15.306877613067627

>  <fragmenstein_outcome>  (204) 
too moved

>  <fragmenstein_mode>  (204) 
expansion

>  <fragmenstein_error>  (204) 


$$$$
C18000-P112
     RDKit          3D

 36 38  0  0  0  0  0  0  0  0999 V2000
   -3.1733  -14.7963   10.4033 O   0  0  0  0  0  0  0  0  0  0  0  0
   -2.7684  -15.4238   11.3374 C   0  0  0  0  0  0  0  0  0  0  0  0
   -1.5907  -15.2172   12.1878 N   0  0  0  0  0  0  0  0  0  0  0  0
   -0.4540  -14.2102   12.0977 C   0  0  0  0  0  0  0  0  0  0  0  0
    0.0824  -12.8296   11.7328 C   0  0  0  0  0  0  0  0  0  0  0  0
    1.2613  -12.7077   11.1423 N   0  0  0  0  0  0  0  0  0  0  0  0
    1.7571  -11.3414   11.0352 C   0  0  0  0  0  0  0  0  0  0  0  0
    0.7280  -10.6746   11.4989 C   0  0  0  0  0  0  0  0  0  0  0  0
   -0.2502  -11.5372   11.9758 N   0  0  0  0  0  0  0  0  0  0  0  0
   -3.4649  -16.7214   11.7246 C   0  0  0  0  0  0  0  0  0  0  0  0
   -2.8320  -17.8915   12.1693 C   0  0  0  0  0  0  0  0  0  0  0  0
   -3.8071  -18.8882   12.2960 C   0  0  0  0  0  0  0  0  0  0  0  0
   -5.0142  -18.4206   12.0240 N   0  0  0  0  0  0  0  0  0  0  0  0
   -4.8028  -17.1466   11.5860 N   0  0  0  0  0  0  0  0  0  0  0  0
   -5.9908  -16.4762   11.0508 C   0  0  0  0  0  0  0  0  0  0  0  0
   -6.7337  -17.3276    9.9836 C   0  0  0  0  0  0  0  0  0  0  0  0
   -7.9660  -17.9045   10.6793 C   0  0  0  0  0  0  0  0  0  0  0  0
   -8.3808  -16.7713   11.5984 C   0  0  0  0  0  0  0  0  0  0  0  0
   -7.0625  -16.2131   12.1364 C   0  0  0  0  0  0  0  0  0  0  0  0
   -1.5089  -15.9903   12.8343 H   0  0  0  0  0  0  0  0  0  0  0  0
   -0.3084  -14.1127   13.1736 H   0  0  0  0  0  0  0  0  0  0  0  0
    0.3009  -14.8650   11.6516 H   0  0  0  0  0  0  0  0  0  0  0  0
    2.7068  -11.0909   10.5766 H   0  0  0  0  0  0  0  0  0  0  0  0
    0.7013   -9.6199   11.4755 H   0  0  0  0  0  0  0  0  0  0  0  0
   -1.1035  -11.2184   12.3948 H   0  0  0  0  0  0  0  0  0  0  0  0
   -1.7701  -18.0337   12.3167 H   0  0  0  0  0  0  0  0  0  0  0  0
   -3.6829  -19.9292   12.5697 H   0  0  0  0  0  0  0  0  0  0  0  0
   -5.6489  -15.5369   10.6054 H   0  0  0  0  0  0  0  0  0  0  0  0
   -7.0641  -16.6635    9.1743 H   0  0  0  0  0  0  0  0  0  0  0  0
   -6.1115  -18.1056    9.5309 H   0  0  0  0  0  0  0  0  0  0  0  0
   -8.7526  -18.1741    9.9688 H   0  0  0  0  0  0  0  0  0  0  0  0
   -7.7028  -18.7982   11.2540 H   0  0  0  0  0  0  0  0  0  0  0  0
   -9.0439  -17.0903   12.4032 H   0  0  0  0  0  0  0  0  0  0  0  0
   -8.9023  -15.9963   11.0237 H   0  0  0  0  0  0  0  0  0  0  0  0
   -6.8085  -16.6922   13.0885 H   0  0  0  0  0  0  0  0  0  0  0  0
   -7.1556  -15.1404   12.3394 H   0  0  0  0  0  0  0  0  0  0  0  0
  1  2  2  0
  2  3  1  0
  3  4  1  0
  4  5  1  0
  5  6  2  0
  6  7  1  0
  7  8  2  0
  8  9  1  0
  2 10  1  0
 10 11  2  0
 11 12  1  0
 12 13  2  0
 13 14  1  0
 14 15  1  0
 15 16  1  0
 16 17  1  0
 17 18  1  0
 18 19  1  0
  9  5  1  0
 14 10  1  0
 19 15  1  0
  3 20  1  0
  4 21  1  0
  4 22  1  0
  7 23  1  0
  8 24  1  0
  9 25  1  0
 11 26  1  0
 12 27  1  0
 15 28  1  0
 16 29  1  0
 16 30  1  0
 17 31  1  0
 17 32  1  0
 18 33  1  0
 18 34  1  0
 19 35  1  0
 19 36  1  0
M  END
>  <Energy>  (205) 
57.548252391616295

>  <compound_id>  (205) 
18000

>  <target_id>  (205) 
1

>  <reference_id>  (205) 
112

>  <inspiration_ids>  (205) 
[112, 63]

>  <energy_score>  (205) 
64.49576084358421

>  <distance_score>  (205) 
12.604536713855241

>  <path>  (205) 
/opt/xchem-fragalysis-2/maxwin/BulkDock/SCRATCH/511024/C18000-P112/C18000-P112.minimised.mol

>  <scratch_subdir>  (205) 
/opt/xchem-fragalysis-2/maxwin/BulkDock/SCRATCH/511024/C18000-P112

>  <fragmenstein_runtime>  (205) 
17.191450834274292

>  <fragmenstein_outcome>  (205) 
too moved

>  <fragmenstein_mode>  (205) 
expansion

>  <fragmenstein_error>  (205) 


$$$$
C18000-P63
     RDKit          3D

 36 38  0  0  0  0  0  0  0  0999 V2000
   -4.8632  -14.9810   16.8691 O   0  0  0  0  0  0  0  0  0  0  0  0
   -4.2019  -15.6634   17.5938 C   0  0  0  0  0  0  0  0  0  0  0  0
   -2.8545  -15.4748   18.0980 N   0  0  0  0  0  0  0  0  0  0  0  0
   -1.8567  -14.4468   17.8013 C   0  0  0  0  0  0  0  0  0  0  0  0
   -0.6093  -14.3364   18.6541 C   0  0  0  0  0  0  0  0  0  0  0  0
   -0.3898  -13.5173   19.6759 N   0  0  0  0  0  0  0  0  0  0  0  0
    0.9463  -13.6362   20.0006 C   0  0  0  0  0  0  0  0  0  0  0  0
    1.5721  -14.4992   19.1383 C   0  0  0  0  0  0  0  0  0  0  0  0
    0.5857  -14.9307   18.2885 N   0  0  0  0  0  0  0  0  0  0  0  0
   -4.8329  -16.9547   17.9950 C   0  0  0  0  0  0  0  0  0  0  0  0
   -4.2605  -18.1657   18.3698 C   0  0  0  0  0  0  0  0  0  0  0  0
   -5.3186  -19.0718   18.5607 C   0  0  0  0  0  0  0  0  0  0  0  0
   -6.5026  -18.5198   18.3232 N   0  0  0  0  0  0  0  0  0  0  0  0
   -6.2123  -17.2419   17.9597 N   0  0  0  0  0  0  0  0  0  0  0  0
   -7.3329  -16.3318   17.7028 C   0  0  0  0  0  0  0  0  0  0  0  0
   -8.5312  -16.5080   18.6600 C   0  0  0  0  0  0  0  0  0  0  0  0
   -9.5945  -17.2325   17.8579 C   0  0  0  0  0  0  0  0  0  0  0  0
   -9.4400  -16.6521   16.4651 C   0  0  0  0  0  0  0  0  0  0  0  0
   -7.9326  -16.4503   16.2886 C   0  0  0  0  0  0  0  0  0  0  0  0
   -2.5813  -16.2928   18.6219 H   0  0  0  0  0  0  0  0  0  0  0  0
   -2.3848  -13.4869   17.8163 H   0  0  0  0  0  0  0  0  0  0  0  0
   -1.5666  -14.6266   16.7613 H   0  0  0  0  0  0  0  0  0  0  0  0
    1.3826  -13.0711   20.8129 H   0  0  0  0  0  0  0  0  0  0  0  0
    2.6016  -14.8082   19.0280 H   0  0  0  0  0  0  0  0  0  0  0  0
    0.7128  -15.5324   17.4868 H   0  0  0  0  0  0  0  0  0  0  0  0
   -3.2076  -18.3876   18.4666 H   0  0  0  0  0  0  0  0  0  0  0  0
   -5.2691  -20.1148   18.8459 H   0  0  0  0  0  0  0  0  0  0  0  0
   -6.9495  -15.3203   17.8683 H   0  0  0  0  0  0  0  0  0  0  0  0
   -8.2874  -17.0262   19.5928 H   0  0  0  0  0  0  0  0  0  0  0  0
   -8.9132  -15.5161   18.9356 H   0  0  0  0  0  0  0  0  0  0  0  0
   -9.3818  -18.3018   17.8847 H   0  0  0  0  0  0  0  0  0  0  0  0
  -10.5965  -17.0693   18.2649 H   0  0  0  0  0  0  0  0  0  0  0  0
   -9.8790  -17.2842   15.6904 H   0  0  0  0  0  0  0  0  0  0  0  0
   -9.9433  -15.6785   16.4151 H   0  0  0  0  0  0  0  0  0  0  0  0
   -7.4778  -17.2634   15.7224 H   0  0  0  0  0  0  0  0  0  0  0  0
   -7.7439  -15.5368   15.7125 H   0  0  0  0  0  0  0  0  0  0  0  0
  1  2  2  0
  2  3  1  0
  3  4  1  0
  4  5  1  0
  5  6  2  0
  6  7  1  0
  7  8  2  0
  8  9  1  0
  2 10  1  0
 10 11  2  0
 11 12  1  0
 12 13  2  0
 13 14  1  0
 14 15  1  0
 15 16  1  0
 16 17  1  0
 17 18  1  0
 18 19  1  0
  9  5  1  0
 14 10  1  0
 19 15  1  0
  3 20  1  0
  4 21  1  0
  4 22  1  0
  7 23  1  0
  8 24  1  0
  9 25  1  0
 11 26  1  0
 12 27  1  0
 15 28  1  0
 16 29  1  0
 16 30  1  0
 17 31  1  0
 17 32  1  0
 18 33  1  0
 18 34  1  0
 19 35  1  0
 19 36  1  0
M  END
>  <Energy>  (206) 
-12.441791233933243

>  <compound_id>  (206) 
18000

>  <target_id>  (206) 
1

>  <reference_id>  (206) 
63

>  <inspiration_ids>  (206) 
[112, 63]

>  <energy_score>  (206) 
-5.494282781961147

>  <distance_score>  (206) 
13.308144359831532

>  <path>  (206) 
/opt/xchem-fragalysis-2/maxwin/BulkDock/SCRATCH/511024/C18000-P63/C18000-P63.minimised.mol

>  <scratch_subdir>  (206) 
/opt/xchem-fragalysis-2/maxwin/BulkDock/SCRATCH/511024/C18000-P63

>  <fragmenstein_runtime>  (206) 
21.06120800971985

>  <fragmenstein_outcome>  (206) 
too moved

>  <fragmenstein_mode>  (206) 
expansion

>  <fragmenstein_error>  (206) 


$$$$
C18001-P112
     RDKit          3D

 38 41  0  0  0  0  0  0  0  0999 V2000
    0.9025  -17.0957    7.6047 C   0  0  0  0  0  0  0  0  0  0  0  0
    0.8794  -17.5270    8.9055 C   0  0  0  0  0  0  0  0  0  0  0  0
   -0.4078  -17.9700    9.1012 N   0  0  0  0  0  0  0  0  0  0  0  0
   -1.1663  -17.7374    7.9539 C   0  0  0  0  0  0  0  0  0  0  0  0
   -2.6749  -17.7920    7.9187 C   0  0  0  0  0  0  0  0  0  0  0  0
   -3.3627  -16.8187    8.6449 C   0  0  0  0  0  0  0  0  0  0  0  0
   -4.7027  -16.6859    8.7561 N   0  0  0  0  0  0  0  0  0  0  0  0
   -5.4520  -17.5655    8.0649 C   0  0  0  0  0  0  0  0  0  0  0  0
   -4.9463  -18.5896    7.2635 C   0  0  0  0  0  0  0  0  0  0  0  0
   -5.9558  -19.4259    6.5458 C   0  0  0  0  0  0  0  0  0  0  0  0
   -5.7884  -20.5749    5.7300 C   0  0  0  0  0  0  0  0  0  0  0  0
   -7.0397  -20.8802    5.2231 C   0  0  0  0  0  0  0  0  0  0  0  0
   -7.9062  -19.9537    5.7357 N   0  0  0  0  0  0  0  0  0  0  0  0
   -9.3564  -19.8480    5.5475 C   0  0  0  0  0  0  0  0  0  0  0  0
   -9.7803  -19.5538    4.1126 C   0  0  0  0  0  0  0  0  0  0  0  0
  -11.2872  -19.7899    4.1274 C   0  0  0  0  0  0  0  0  0  0  0  0
  -11.4738  -21.0219    4.9932 C   0  0  0  0  0  0  0  0  0  0  0  0
  -10.2477  -21.0701    5.9008 C   0  0  0  0  0  0  0  0  0  0  0  0
   -7.2777  -19.1293    6.6109 N   0  0  0  0  0  0  0  0  0  0  0  0
   -3.5135  -18.6916    7.1966 C   0  0  0  0  0  0  0  0  0  0  0  0
   -0.3550  -17.2268    7.0339 N   0  0  0  0  0  0  0  0  0  0  0  0
    1.7308  -16.6830    7.0434 H   0  0  0  0  0  0  0  0  0  0  0  0
    1.6311  -17.5770    9.6816 H   0  0  0  0  0  0  0  0  0  0  0  0
   -0.7679  -18.3674    9.9558 H   0  0  0  0  0  0  0  0  0  0  0  0
   -2.8394  -16.0543    9.2066 H   0  0  0  0  0  0  0  0  0  0  0  0
   -6.5229  -17.4032    8.1744 H   0  0  0  0  0  0  0  0  0  0  0  0
   -4.8668  -21.0895    5.4966 H   0  0  0  0  0  0  0  0  0  0  0  0
   -7.3688  -21.6557    4.5454 H   0  0  0  0  0  0  0  0  0  0  0  0
   -9.6726  -19.0060    6.1776 H   0  0  0  0  0  0  0  0  0  0  0  0
   -9.2986  -20.2394    3.4047 H   0  0  0  0  0  0  0  0  0  0  0  0
   -9.5309  -18.5320    3.8089 H   0  0  0  0  0  0  0  0  0  0  0  0
  -11.6911  -19.9285    3.1200 H   0  0  0  0  0  0  0  0  0  0  0  0
  -11.7956  -18.9278    4.5721 H   0  0  0  0  0  0  0  0  0  0  0  0
  -12.4121  -20.9925    5.5526 H   0  0  0  0  0  0  0  0  0  0  0  0
  -11.5029  -21.9212    4.3665 H   0  0  0  0  0  0  0  0  0  0  0  0
  -10.5583  -21.0393    6.9498 H   0  0  0  0  0  0  0  0  0  0  0  0
   -9.7344  -22.0208    5.7148 H   0  0  0  0  0  0  0  0  0  0  0  0
   -3.0533  -19.4535    6.5728 H   0  0  0  0  0  0  0  0  0  0  0  0
  1  2  2  0
  2  3  1  0
  3  4  1  0
  4  5  1  0
  5  6  2  0
  6  7  1  0
  7  8  2  0
  8  9  1  0
  9 10  1  0
 10 11  1  0
 11 12  2  0
 12 13  1  0
 13 14  1  0
 14 15  1  0
 15 16  1  0
 16 17  1  0
 17 18  1  0
 13 19  1  0
  9 20  2  0
  4 21  2  0
 21  1  1  0
 20  5  1  0
 19 10  2  0
 18 14  1  0
  1 22  1  0
  2 23  1  0
  3 24  1  0
  6 25  1  0
  8 26  1  0
 11 27  1  0
 12 28  1  0
 14 29  1  0
 15 30  1  0
 15 31  1  0
 16 32  1  0
 16 33  1  0
 17 34  1  0
 17 35  1  0
 18 36  1  0
 18 37  1  0
 20 38  1  0
M  END
>  <Energy>  (207) 
61.6584674705271

>  <compound_id>  (207) 
18001

>  <target_id>  (207) 
1

>  <reference_id>  (207) 
112

>  <inspiration_ids>  (207) 
[112, 63]

>  <energy_score>  (207) 
-8.868360103875375

>  <distance_score>  (207) 
14.873735574356635

>  <path>  (207) 
/opt/xchem-fragalysis-2/maxwin/BulkDock/SCRATCH/511024/C18001-P112/C18001-P112.minimised.mol

>  <scratch_subdir>  (207) 
/opt/xchem-fragalysis-2/maxwin/BulkDock/SCRATCH/511024/C18001-P112

>  <fragmenstein_runtime>  (207) 
17.175578355789185

>  <fragmenstein_outcome>  (207) 
too moved

>  <fragmenstein_mode>  (207) 
expansion

>  <fragmenstein_error>  (207) 


$$$$
C18001-P63
     RDKit          3D

 38 41  0  0  0  0  0  0  0  0999 V2000
    4.9449   -8.2973   18.3738 C   0  0  0  0  0  0  0  0  0  0  0  0
    3.6038   -7.9485   18.2104 C   0  0  0  0  0  0  0  0  0  0  0  0
    2.6601   -8.7667   17.4573 N   0  0  0  0  0  0  0  0  0  0  0  0
    3.2997  -10.0887   17.4293 C   0  0  0  0  0  0  0  0  0  0  0  0
    2.6114  -11.4757   18.4623 C   0  0  0  0  0  0  0  0  0  0  0  0
    1.7888   -9.9819   19.6386 C   0  0  0  0  0  0  0  0  0  0  0  0
    0.3001  -10.5083   20.7936 N   0  0  0  0  0  0  0  0  0  0  0  0
   -0.9103  -11.6214   19.8093 C   0  0  0  0  0  0  0  0  0  0  0  0
   -0.5139  -12.6691   18.2785 C   0  0  0  0  0  0  0  0  0  0  0  0
   -1.7320  -13.7254   17.4315 C   0  0  0  0  0  0  0  0  0  0  0  0
   -1.7269  -14.3931   16.2012 C   0  0  0  0  0  0  0  0  0  0  0  0
   -2.6863  -15.1929   15.6512 C   0  0  0  0  0  0  0  0  0  0  0  0
   -3.4381  -15.3305   16.6871 N   0  0  0  0  0  0  0  0  0  0  0  0
   -4.4630  -16.5128   16.8058 C   0  0  0  0  0  0  0  0  0  0  0  0
   -4.3599  -17.6086   17.9160 C   0  0  0  0  0  0  0  0  0  0  0  0
   -5.7012  -18.3534   17.9834 C   0  0  0  0  0  0  0  0  0  0  0  0
   -6.3976  -18.0851   16.6662 C   0  0  0  0  0  0  0  0  0  0  0  0
   -5.9119  -16.7136   16.1891 C   0  0  0  0  0  0  0  0  0  0  0  0
   -3.0501  -13.8256   17.1731 N   0  0  0  0  0  0  0  0  0  0  0  0
    1.3549  -13.1944   18.3761 C   0  0  0  0  0  0  0  0  0  0  0  0
    4.7472   -9.5936   17.8929 N   0  0  0  0  0  0  0  0  0  0  0  0
    5.8882   -7.8155   18.5804 H   0  0  0  0  0  0  0  0  0  0  0  0
    3.2652   -8.7048   18.7795 H   0  0  0  0  0  0  0  0  0  0  0  0
    1.6680   -8.6676   17.6217 H   0  0  0  0  0  0  0  0  0  0  0  0
    1.9323   -9.3147   20.4909 H   0  0  0  0  0  0  0  0  0  0  0  0
   -1.9242  -11.4941   20.1884 H   0  0  0  0  0  0  0  0  0  0  0  0
   -1.2030  -14.1091   15.3853 H   0  0  0  0  0  0  0  0  0  0  0  0
   -2.8504  -15.8321   14.8302 H   0  0  0  0  0  0  0  0  0  0  0  0
   -4.0084  -17.0978   15.9944 H   0  0  0  0  0  0  0  0  0  0  0  0
   -4.0337  -17.2426   18.8835 H   0  0  0  0  0  0  0  0  0  0  0  0
   -3.6042  -18.3473   17.6490 H   0  0  0  0  0  0  0  0  0  0  0  0
   -6.3020  -17.9910   18.8236 H   0  0  0  0  0  0  0  0  0  0  0  0
   -5.5542  -19.4264   18.1478 H   0  0  0  0  0  0  0  0  0  0  0  0
   -6.1016  -18.8467   15.9380 H   0  0  0  0  0  0  0  0  0  0  0  0
   -7.4855  -18.1150   16.7693 H   0  0  0  0  0  0  0  0  0  0  0  0
   -6.6280  -15.9306   16.4487 H   0  0  0  0  0  0  0  0  0  0  0  0
   -5.8777  -16.7672   15.0959 H   0  0  0  0  0  0  0  0  0  0  0  0
    1.6620  -14.0416   17.7230 H   0  0  0  0  0  0  0  0  0  0  0  0
  1  2  2  0
  2  3  1  0
  3  4  1  0
  4  5  1  0
  5  6  2  0
  6  7  1  0
  7  8  2  0
  8  9  1  0
  9 10  1  0
 10 11  1  0
 11 12  2  0
 12 13  1  0
 13 14  1  0
 14 15  1  0
 15 16  1  0
 16 17  1  0
 17 18  1  0
 13 19  1  0
  9 20  2  0
  4 21  2  0
 21  1  1  0
 20  5  1  0
 19 10  2  0
 18 14  1  0
  1 22  1  0
  2 23  1  0
  3 24  1  0
  6 25  1  0
  8 26  1  0
 11 27  1  0
 12 28  1  0
 14 29  1  0
 15 30  1  0
 15 31  1  0
 16 32  1  0
 16 33  1  0
 17 34  1  0
 17 35  1  0
 18 36  1  0
 18 37  1  0
 20 38  1  0
M  END
>  <Energy>  (208) 
1324.3459299918843

>  <compound_id>  (208) 
18001

>  <target_id>  (208) 
1

>  <reference_id>  (208) 
63

>  <inspiration_ids>  (208) 
[112, 63]

>  <energy_score>  (208) 
1253.8191024174828

>  <distance_score>  (208) 
12.649481970098087

>  <path>  (208) 
/opt/xchem-fragalysis-2/maxwin/BulkDock/SCRATCH/511024/C18001-P63/C18001-P63.minimised.mol

>  <scratch_subdir>  (208) 
/opt/xchem-fragalysis-2/maxwin/BulkDock/SCRATCH/511024/C18001-P63

>  <fragmenstein_runtime>  (208) 
12.900657415390015

>  <fragmenstein_outcome>  (208) 
too moved

>  <fragmenstein_mode>  (208) 
expansion

>  <fragmenstein_error>  (208) 


$$$$
C18002-P112
     RDKit          3D

 39 41  0  0  0  0  0  0  0  0999 V2000
   -4.4817  -10.3695    4.7619 C   0  0  0  0  0  0  0  0  0  0  0  0
   -4.4842  -10.1504    6.2787 C   0  0  0  0  0  0  0  0  0  0  0  0
   -5.1088  -11.3259    6.9813 N   0  0  0  0  0  0  0  0  0  0  0  0
   -5.1398  -12.7557    6.6288 C   0  0  0  0  0  0  0  0  0  0  0  0
   -4.6050  -13.3489    5.7347 O   0  0  0  0  0  0  0  0  0  0  0  0
   -6.1173  -13.6150    7.5106 C   0  0  0  0  0  0  0  0  0  0  0  0
   -7.3372  -13.1983    8.1360 C   0  0  0  0  0  0  0  0  0  0  0  0
   -7.9002  -14.3114    8.7213 C   0  0  0  0  0  0  0  0  0  0  0  0
   -7.0861  -15.3596    8.4066 N   0  0  0  0  0  0  0  0  0  0  0  0
   -7.3175  -16.7694    8.7371 C   0  0  0  0  0  0  0  0  0  0  0  0
   -8.6318  -17.3515    8.1644 C   0  0  0  0  0  0  0  0  0  0  0  0
   -9.1865  -18.2653    9.2504 C   0  0  0  0  0  0  0  0  0  0  0  0
   -8.7888  -17.5629   10.5334 C   0  0  0  0  0  0  0  0  0  0  0  0
   -7.3798  -17.0582   10.2509 C   0  0  0  0  0  0  0  0  0  0  0  0
   -6.0038  -14.9671    7.6716 N   0  0  0  0  0  0  0  0  0  0  0  0
   -3.1475   -9.4892    6.7735 C   0  0  0  0  0  0  0  0  0  0  0  0
   -2.9861   -8.6296    7.7722 N   0  0  0  0  0  0  0  0  0  0  0  0
   -1.7262   -8.0638    7.6339 C   0  0  0  0  0  0  0  0  0  0  0  0
   -1.0782   -8.5984    6.5559 C   0  0  0  0  0  0  0  0  0  0  0  0
   -1.9660   -9.5042    6.0316 N   0  0  0  0  0  0  0  0  0  0  0  0
   -4.2163   -9.4502    4.2281 H   0  0  0  0  0  0  0  0  0  0  0  0
   -3.7652  -11.1448    4.4700 H   0  0  0  0  0  0  0  0  0  0  0  0
   -5.4712  -10.6836    4.4112 H   0  0  0  0  0  0  0  0  0  0  0  0
   -5.2270   -9.3602    6.4620 H   0  0  0  0  0  0  0  0  0  0  0  0
   -5.6091  -11.1880    7.8462 H   0  0  0  0  0  0  0  0  0  0  0  0
   -7.7648  -12.2058    8.1353 H   0  0  0  0  0  0  0  0  0  0  0  0
   -8.8102  -14.4442    9.2898 H   0  0  0  0  0  0  0  0  0  0  0  0
   -6.4662  -17.3183    8.3130 H   0  0  0  0  0  0  0  0  0  0  0  0
   -8.4547  -17.8986    7.2324 H   0  0  0  0  0  0  0  0  0  0  0  0
   -9.3595  -16.5624    7.9415 H   0  0  0  0  0  0  0  0  0  0  0  0
   -8.7069  -19.2460    9.2004 H   0  0  0  0  0  0  0  0  0  0  0  0
  -10.2663  -18.4019    9.1615 H   0  0  0  0  0  0  0  0  0  0  0  0
   -8.8001  -18.2309   11.3981 H   0  0  0  0  0  0  0  0  0  0  0  0
   -9.4591  -16.7186   10.7307 H   0  0  0  0  0  0  0  0  0  0  0  0
   -6.6668  -17.8575   10.4854 H   0  0  0  0  0  0  0  0  0  0  0  0
   -7.1230  -16.1980   10.8775 H   0  0  0  0  0  0  0  0  0  0  0  0
   -1.3637   -7.3039    8.3140 H   0  0  0  0  0  0  0  0  0  0  0  0
   -0.1014   -8.4313    6.1249 H   0  0  0  0  0  0  0  0  0  0  0  0
   -1.8068  -10.0714    5.2099 H   0  0  0  0  0  0  0  0  0  0  0  0
  1  2  1  0
  2  3  1  0
  3  4  1  0
  4  5  2  0
  4  6  1  0
  6  7  1  0
  7  8  2  0
  8  9  1  0
  9 10  1  0
 10 11  1  0
 11 12  1  0
 12 13  1  0
 13 14  1  0
  9 15  1  0
  2 16  1  0
 16 17  2  0
 17 18  1  0
 18 19  2  0
 19 20  1  0
 15  6  2  0
 20 16  1  0
 14 10  1  0
  1 21  1  0
  1 22  1  0
  1 23  1  0
  2 24  1  0
  3 25  1  0
  7 26  1  0
  8 27  1  0
 10 28  1  0
 11 29  1  0
 11 30  1  0
 12 31  1  0
 12 32  1  0
 13 33  1  0
 13 34  1  0
 14 35  1  0
 14 36  1  0
 18 37  1  0
 19 38  1  0
 20 39  1  0
M  END
>  <Energy>  (209) 
63.239531842488475

>  <compound_id>  (209) 
18002

>  <target_id>  (209) 
1

>  <reference_id>  (209) 
112

>  <inspiration_ids>  (209) 
[112, 63]

>  <energy_score>  (209) 
12.791232515020909

>  <distance_score>  (209) 
14.162594640977026

>  <path>  (209) 
/opt/xchem-fragalysis-2/maxwin/BulkDock/SCRATCH/511024/C18002-P112/C18002-P112.minimised.mol

>  <scratch_subdir>  (209) 
/opt/xchem-fragalysis-2/maxwin/BulkDock/SCRATCH/511024/C18002-P112

>  <fragmenstein_runtime>  (209) 
19.392799854278564

>  <fragmenstein_outcome>  (209) 
too moved

>  <fragmenstein_mode>  (209) 
expansion

>  <fragmenstein_error>  (209) 


$$$$
C18002-P63
     RDKit          3D

 39 41  0  0  0  0  0  0  0  0999 V2000
    2.2998   -9.7881   17.7022 C   0  0  0  0  0  0  0  0  0  0  0  0
    3.2519  -11.3552   16.9152 C   0  0  0  0  0  0  0  0  0  0  0  0
    1.7023  -12.4640   16.1714 N   0  0  0  0  0  0  0  0  0  0  0  0
    0.4112  -13.4750   17.0408 C   0  0  0  0  0  0  0  0  0  0  0  0
    0.5035  -13.6292   18.1599 O   0  0  0  0  0  0  0  0  0  0  0  0
   -1.2874  -14.1707   16.4270 C   0  0  0  0  0  0  0  0  0  0  0  0
   -2.2063  -13.5491   17.2276 C   0  0  0  0  0  0  0  0  0  0  0  0
   -3.3694  -14.1506   16.8582 C   0  0  0  0  0  0  0  0  0  0  0  0
   -3.2349  -15.3414   16.3327 N   0  0  0  0  0  0  0  0  0  0  0  0
   -4.2087  -16.5604   16.5714 C   0  0  0  0  0  0  0  0  0  0  0  0
   -4.1273  -17.8961   15.7749 C   0  0  0  0  0  0  0  0  0  0  0  0
   -5.5460  -18.4189   15.5487 C   0  0  0  0  0  0  0  0  0  0  0  0
   -6.4829  -17.2665   15.8088 C   0  0  0  0  0  0  0  0  0  0  0  0
   -5.7692  -16.4777   16.8931 C   0  0  0  0  0  0  0  0  0  0  0  0
   -2.0792  -15.0329   15.6600 N   0  0  0  0  0  0  0  0  0  0  0  0
    4.1362   -9.7587   17.6413 C   0  0  0  0  0  0  0  0  0  0  0  0
    5.5622   -9.7082   18.3685 N   0  0  0  0  0  0  0  0  0  0  0  0
    6.1314   -8.4827   18.6831 C   0  0  0  0  0  0  0  0  0  0  0  0
    5.3001   -7.4805   18.3077 C   0  0  0  0  0  0  0  0  0  0  0  0
    3.9755   -8.1879   18.2021 N   0  0  0  0  0  0  0  0  0  0  0  0
    1.2574   -9.4928   17.6662 H   0  0  0  0  0  0  0  0  0  0  0  0
    2.4607   -8.8068   17.2135 H   0  0  0  0  0  0  0  0  0  0  0  0
    2.3160   -9.6685   18.7693 H   0  0  0  0  0  0  0  0  0  0  0  0
    3.7118  -11.1476   15.9387 H   0  0  0  0  0  0  0  0  0  0  0  0
    1.5234  -12.4959   15.1732 H   0  0  0  0  0  0  0  0  0  0  0  0
   -2.0535  -12.7100   17.8954 H   0  0  0  0  0  0  0  0  0  0  0  0
   -4.3727  -13.8764   17.1236 H   0  0  0  0  0  0  0  0  0  0  0  0
   -3.8832  -16.7971   17.5986 H   0  0  0  0  0  0  0  0  0  0  0  0
   -3.5907  -18.6550   16.3611 H   0  0  0  0  0  0  0  0  0  0  0  0
   -3.5621  -17.8013   14.8563 H   0  0  0  0  0  0  0  0  0  0  0  0
   -5.6594  -18.8239   14.5411 H   0  0  0  0  0  0  0  0  0  0  0  0
   -5.7562  -19.2122   16.2741 H   0  0  0  0  0  0  0  0  0  0  0  0
   -6.6260  -16.6879   14.8962 H   0  0  0  0  0  0  0  0  0  0  0  0
   -7.4685  -17.5977   16.1469 H   0  0  0  0  0  0  0  0  0  0  0  0
   -6.2218  -15.4964   17.0469 H   0  0  0  0  0  0  0  0  0  0  0  0
   -5.9363  -17.0066   17.8444 H   0  0  0  0  0  0  0  0  0  0  0  0
    7.0868   -8.4651   19.1745 H   0  0  0  0  0  0  0  0  0  0  0  0
    5.3214   -6.4027   18.3451 H   0  0  0  0  0  0  0  0  0  0  0  0
    3.0945   -7.7274   18.2132 H   0  0  0  0  0  0  0  0  0  0  0  0
  1  2  1  0
  2  3  1  0
  3  4  1  0
  4  5  2  0
  4  6  1  0
  6  7  1  0
  7  8  2  0
  8  9  1  0
  9 10  1  0
 10 11  1  0
 11 12  1  0
 12 13  1  0
 13 14  1  0
  9 15  1  0
  2 16  1  0
 16 17  2  0
 17 18  1  0
 18 19  2  0
 19 20  1  0
 15  6  2  0
 20 16  1  0
 14 10  1  0
  1 21  1  0
  1 22  1  0
  1 23  1  0
  2 24  1  0
  3 25  1  0
  7 26  1  0
  8 27  1  0
 10 28  1  0
 11 29  1  0
 11 30  1  0
 12 31  1  0
 12 32  1  0
 13 33  1  0
 13 34  1  0
 14 35  1  0
 14 36  1  0
 18 37  1  0
 19 38  1  0
 20 39  1  0
M  END
>  <Energy>  (210) 
756.79593597927806

>  <compound_id>  (210) 
18002

>  <target_id>  (210) 
1

>  <reference_id>  (210) 
63

>  <inspiration_ids>  (210) 
[112, 63]

>  <energy_score>  (210) 
706.3476366518091

>  <distance_score>  (210) 
12.429972659821573

>  <path>  (210) 
/opt/xchem-fragalysis-2/maxwin/BulkDock/SCRATCH/511024/C18002-P63/C18002-P63.minimised.mol

>  <scratch_subdir>  (210) 
/opt/xchem-fragalysis-2/maxwin/BulkDock/SCRATCH/511024/C18002-P63

>  <fragmenstein_runtime>  (210) 
22.235305309295654

>  <fragmenstein_outcome>  (210) 
too moved

>  <fragmenstein_mode>  (210) 
expansion

>  <fragmenstein_error>  (210) 


$$$$
C18003-P112
     RDKit          3D

 36 38  0  0  0  0  0  0  0  0999 V2000
   -0.6314  -12.1180   11.6951 O   0  0  0  0  0  0  0  0  0  0  0  0
   -0.4662  -12.6468   12.7966 C   0  0  0  0  0  0  0  0  0  0  0  0
    1.1910  -11.9791   13.6120 C   0  0  0  0  0  0  0  0  0  0  0  0
    2.7862  -10.6388   13.6537 C   0  0  0  0  0  0  0  0  0  0  0  0
    3.3463   -9.9127   14.5605 N   0  0  0  0  0  0  0  0  0  0  0  0
    4.3520   -9.4406   13.8759 C   0  0  0  0  0  0  0  0  0  0  0  0
    5.2452  -10.4520   13.7753 C   0  0  0  0  0  0  0  0  0  0  0  0
    4.3533  -11.1742   14.4245 N   0  0  0  0  0  0  0  0  0  0  0  0
   -1.6264  -13.7862   13.7133 N   0  0  0  0  0  0  0  0  0  0  0  0
   -3.5456  -14.3972   13.3136 C   0  0  0  0  0  0  0  0  0  0  0  0
   -3.8190  -16.1563   14.3075 C   0  0  0  0  0  0  0  0  0  0  0  0
   -5.1535  -16.6571   14.4812 N   0  0  0  0  0  0  0  0  0  0  0  0
   -5.8215  -16.0515   13.2801 N   0  0  0  0  0  0  0  0  0  0  0  0
   -7.2436  -16.3323   12.9761 C   0  0  0  0  0  0  0  0  0  0  0  0
   -7.4855  -17.4549   11.9538 C   0  0  0  0  0  0  0  0  0  0  0  0
   -7.6145  -18.7268   12.7805 C   0  0  0  0  0  0  0  0  0  0  0  0
   -8.3439  -18.2931   14.0425 C   0  0  0  0  0  0  0  0  0  0  0  0
   -8.1123  -16.7827   14.1748 C   0  0  0  0  0  0  0  0  0  0  0  0
   -5.0251  -14.7083   12.8555 C   0  0  0  0  0  0  0  0  0  0  0  0
    1.0837  -11.4267   12.5959 H   0  0  0  0  0  0  0  0  0  0  0  0
    1.5502  -12.9595   13.5338 H   0  0  0  0  0  0  0  0  0  0  0  0
    4.3561   -8.3395   13.7707 H   0  0  0  0  0  0  0  0  0  0  0  0
    6.2872  -10.5924   13.5414 H   0  0  0  0  0  0  0  0  0  0  0  0
    4.1843  -11.1332   15.4162 H   0  0  0  0  0  0  0  0  0  0  0  0
   -1.2509  -13.9956   14.6370 H   0  0  0  0  0  0  0  0  0  0  0  0
   -3.0893  -16.5390   14.9623 H   0  0  0  0  0  0  0  0  0  0  0  0
   -7.6308  -15.3863   12.5805 H   0  0  0  0  0  0  0  0  0  0  0  0
   -6.7094  -17.5288   11.1892 H   0  0  0  0  0  0  0  0  0  0  0  0
   -8.4360  -17.2702   11.4366 H   0  0  0  0  0  0  0  0  0  0  0  0
   -8.1453  -19.5196   12.2455 H   0  0  0  0  0  0  0  0  0  0  0  0
   -6.6186  -19.1056   13.0389 H   0  0  0  0  0  0  0  0  0  0  0  0
   -7.9696  -18.8344   14.9177 H   0  0  0  0  0  0  0  0  0  0  0  0
   -9.4156  -18.5021   13.9675 H   0  0  0  0  0  0  0  0  0  0  0  0
   -7.6848  -16.5275   15.1492 H   0  0  0  0  0  0  0  0  0  0  0  0
   -9.0851  -16.2774   14.1206 H   0  0  0  0  0  0  0  0  0  0  0  0
   -5.8424  -14.0602   12.5401 H   0  0  0  0  0  0  0  0  0  0  0  0
  1  2  2  0
  2  3  1  0
  3  4  1  0
  4  5  2  0
  5  6  1  0
  6  7  2  0
  7  8  1  0
  2  9  1  0
  9 10  1  0
 10 11  1  0
 11 12  2  0
 12 13  1  0
 13 14  1  0
 14 15  1  0
 15 16  1  0
 16 17  1  0
 17 18  1  0
 13 19  1  0
  8  4  1  0
 19 10  2  0
 18 14  1  0
  3 20  1  0
  3 21  1  0
  6 22  1  0
  7 23  1  0
  8 24  1  0
  9 25  1  0
 11 26  1  0
 14 27  1  0
 15 28  1  0
 15 29  1  0
 16 30  1  0
 16 31  1  0
 17 32  1  0
 17 33  1  0
 18 34  1  0
 18 35  1  0
 19 36  1  0
M  END
>  <Energy>  (211) 
831.8501872638833

>  <compound_id>  (211) 
18003

>  <target_id>  (211) 
1

>  <reference_id>  (211) 
112

>  <inspiration_ids>  (211) 
[112, 63]

>  <energy_score>  (211) 
758.1227146715621

>  <distance_score>  (211) 
11.330823958177051

>  <path>  (211) 
/opt/xchem-fragalysis-2/maxwin/BulkDock/SCRATCH/511024/C18003-P112/C18003-P112.minimised.mol

>  <scratch_subdir>  (211) 
/opt/xchem-fragalysis-2/maxwin/BulkDock/SCRATCH/511024/C18003-P112

>  <fragmenstein_runtime>  (211) 
12.532463788986206

>  <fragmenstein_outcome>  (211) 
too moved

>  <fragmenstein_mode>  (211) 
expansion

>  <fragmenstein_error>  (211) 


$$$$
C18003-P63
     RDKit          3D

 36 38  0  0  0  0  0  0  0  0999 V2000
   -0.2401  -12.9475   11.6360 O   0  0  0  0  0  0  0  0  0  0  0  0
    0.3851  -13.6182   12.4014 C   0  0  0  0  0  0  0  0  0  0  0  0
    0.9445  -12.6078   13.7819 C   0  0  0  0  0  0  0  0  0  0  0  0
    2.2145  -12.5582   15.3012 C   0  0  0  0  0  0  0  0  0  0  0  0
    3.9686  -12.2580   15.1272 N   0  0  0  0  0  0  0  0  0  0  0  0
    4.7841  -11.6693   14.1652 C   0  0  0  0  0  0  0  0  0  0  0  0
    4.0253  -10.6482   14.3500 C   0  0  0  0  0  0  0  0  0  0  0  0
    3.5803  -11.3175   15.7257 N   0  0  0  0  0  0  0  0  0  0  0  0
    0.6922  -15.0062   12.3757 N   0  0  0  0  0  0  0  0  0  0  0  0
    0.4328  -16.0229   11.3805 C   0  0  0  0  0  0  0  0  0  0  0  0
    1.0042  -17.3406   11.2556 C   0  0  0  0  0  0  0  0  0  0  0  0
    0.4840  -18.1173   10.2918 N   0  0  0  0  0  0  0  0  0  0  0  0
   -0.5356  -17.3896    9.7924 N   0  0  0  0  0  0  0  0  0  0  0  0
   -1.6396  -18.1156    9.1328 C   0  0  0  0  0  0  0  0  0  0  0  0
   -2.9267  -17.3843    8.6877 C   0  0  0  0  0  0  0  0  0  0  0  0
   -3.7716  -18.4961    8.0603 C   0  0  0  0  0  0  0  0  0  0  0  0
   -2.7505  -19.4740    7.4770 C   0  0  0  0  0  0  0  0  0  0  0  0
   -1.3577  -18.9416    7.8794 C   0  0  0  0  0  0  0  0  0  0  0  0
   -0.5463  -16.1281   10.4334 C   0  0  0  0  0  0  0  0  0  0  0  0
    1.3045  -11.7277   13.2401 H   0  0  0  0  0  0  0  0  0  0  0  0
   -0.0819  -12.2690   13.8895 H   0  0  0  0  0  0  0  0  0  0  0  0
    5.6524  -12.0128   13.6436 H   0  0  0  0  0  0  0  0  0  0  0  0
    4.1254   -9.6485   13.9815 H   0  0  0  0  0  0  0  0  0  0  0  0
    3.3618  -10.8272   16.5739 H   0  0  0  0  0  0  0  0  0  0  0  0
    1.2954  -15.2104   13.1183 H   0  0  0  0  0  0  0  0  0  0  0  0
    1.8003  -17.7751   11.8460 H   0  0  0  0  0  0  0  0  0  0  0  0
   -1.9219  -18.8795    9.8548 H   0  0  0  0  0  0  0  0  0  0  0  0
   -3.4831  -16.8784    9.4761 H   0  0  0  0  0  0  0  0  0  0  0  0
   -2.6850  -16.6283    7.9311 H   0  0  0  0  0  0  0  0  0  0  0  0
   -4.4522  -18.1056    7.2980 H   0  0  0  0  0  0  0  0  0  0  0  0
   -4.3736  -18.9966    8.8274 H   0  0  0  0  0  0  0  0  0  0  0  0
   -2.9118  -20.4754    7.8922 H   0  0  0  0  0  0  0  0  0  0  0  0
   -2.8359  -19.5499    6.3883 H   0  0  0  0  0  0  0  0  0  0  0  0
   -0.6518  -19.7588    8.0584 H   0  0  0  0  0  0  0  0  0  0  0  0
   -0.9432  -18.3092    7.0850 H   0  0  0  0  0  0  0  0  0  0  0  0
   -1.3932  -15.4626   10.3135 H   0  0  0  0  0  0  0  0  0  0  0  0
  1  2  2  0
  2  3  1  0
  3  4  1  0
  4  5  2  0
  5  6  1  0
  6  7  2  0
  7  8  1  0
  2  9  1  0
  9 10  1  0
 10 11  1  0
 11 12  2  0
 12 13  1  0
 13 14  1  0
 14 15  1  0
 15 16  1  0
 16 17  1  0
 17 18  1  0
 13 19  1  0
  8  4  1  0
 19 10  2  0
 18 14  1  0
  3 20  1  0
  3 21  1  0
  6 22  1  0
  7 23  1  0
  8 24  1  0
  9 25  1  0
 11 26  1  0
 14 27  1  0
 15 28  1  0
 15 29  1  0
 16 30  1  0
 16 31  1  0
 17 32  1  0
 17 33  1  0
 18 34  1  0
 18 35  1  0
 19 36  1  0
M  END
>  <Energy>  (212) 
528.90124114599894

>  <compound_id>  (212) 
18003

>  <target_id>  (212) 
1

>  <reference_id>  (212) 
63

>  <inspiration_ids>  (212) 
[112, 63]

>  <energy_score>  (212) 
455.17376855368616

>  <distance_score>  (212) 
13.964614483584455

>  <path>  (212) 
/opt/xchem-fragalysis-2/maxwin/BulkDock/SCRATCH/511024/C18003-P63/C18003-P63.minimised.mol

>  <scratch_subdir>  (212) 
/opt/xchem-fragalysis-2/maxwin/BulkDock/SCRATCH/511024/C18003-P63

>  <fragmenstein_runtime>  (212) 
11.72679853439331

>  <fragmenstein_outcome>  (212) 
too moved

>  <fragmenstein_mode>  (212) 
expansion

>  <fragmenstein_error>  (212) 


$$$$
C18004-P112
     RDKit          3D

 45 46  0  0  0  0  0  0  0  0999 V2000
    2.8515  -18.1678    7.5522 C   0  0  0  0  0  0  0  0  0  0  0  0
    2.3471  -17.3460    8.7429 C   0  0  0  0  0  0  0  0  0  0  0  0
    0.8032  -17.6273    9.0284 C   0  0  0  0  0  0  0  0  0  0  0  0
    0.4403  -19.1175    9.2951 C   0  0  0  0  0  0  0  0  0  0  0  0
    1.1477  -19.6741   10.5298 C   0  0  0  0  0  0  0  0  0  0  0  0
   -1.0111  -19.3706    9.3394 N   0  0  0  0  0  0  0  0  0  0  0  0
   -1.9156  -19.5402   10.4650 C   0  0  0  0  0  0  0  0  0  0  0  0
   -1.7227  -19.4383   11.6456 O   0  0  0  0  0  0  0  0  0  0  0  0
   -3.3513  -19.8666    9.9915 C   0  0  0  0  0  0  0  0  0  0  0  0
   -3.8059  -21.2463   10.1876 N   0  0  0  0  0  0  0  0  0  0  0  0
   -3.2521  -22.2341   10.9475 C   0  0  0  0  0  0  0  0  0  0  0  0
   -3.9750  -23.3785   10.7038 C   0  0  0  0  0  0  0  0  0  0  0  0
   -4.9551  -22.9868    9.7847 C   0  0  0  0  0  0  0  0  0  0  0  0
   -4.9069  -21.6761    9.5080 N   0  0  0  0  0  0  0  0  0  0  0  0
    2.7472  -15.9274    8.5172 N   0  0  0  0  0  0  0  0  0  0  0  0
    4.0756  -15.2866    8.5262 C   0  0  0  0  0  0  0  0  0  0  0  0
    5.1592  -15.7348    8.7962 O   0  0  0  0  0  0  0  0  0  0  0  0
    3.9852  -13.7667    8.1522 C   0  0  0  0  0  0  0  0  0  0  0  0
    5.0688  -12.8365    8.7357 C   0  0  0  0  0  0  0  0  0  0  0  0
    5.0746  -11.5128    8.6566 N   0  0  0  0  0  0  0  0  0  0  0  0
    6.2363  -11.0827    9.2517 C   0  0  0  0  0  0  0  0  0  0  0  0
    6.9424  -12.1473    9.7472 C   0  0  0  0  0  0  0  0  0  0  0  0
    6.2090  -13.2510    9.3943 N   0  0  0  0  0  0  0  0  0  0  0  0
    2.2816  -17.9323    6.6468 H   0  0  0  0  0  0  0  0  0  0  0  0
    3.9050  -17.9529    7.3414 H   0  0  0  0  0  0  0  0  0  0  0  0
    2.7787  -19.2424    7.7392 H   0  0  0  0  0  0  0  0  0  0  0  0
    2.9221  -17.6499    9.6250 H   0  0  0  0  0  0  0  0  0  0  0  0
    0.4863  -17.0137    9.8801 H   0  0  0  0  0  0  0  0  0  0  0  0
    0.2382  -17.2897    8.1522 H   0  0  0  0  0  0  0  0  0  0  0  0
    0.7643  -19.7087    8.4321 H   0  0  0  0  0  0  0  0  0  0  0  0
    0.8349  -20.7051   10.7286 H   0  0  0  0  0  0  0  0  0  0  0  0
    2.2336  -19.6837   10.3970 H   0  0  0  0  0  0  0  0  0  0  0  0
    0.9228  -19.0775   11.4199 H   0  0  0  0  0  0  0  0  0  0  0  0
   -1.5374  -19.4529    8.4759 H   0  0  0  0  0  0  0  0  0  0  0  0
   -4.0476  -19.2302   10.5501 H   0  0  0  0  0  0  0  0  0  0  0  0
   -3.4774  -19.6394    8.9277 H   0  0  0  0  0  0  0  0  0  0  0  0
   -2.4114  -22.0561   11.6047 H   0  0  0  0  0  0  0  0  0  0  0  0
   -3.8101  -24.3529   11.1397 H   0  0  0  0  0  0  0  0  0  0  0  0
   -5.7154  -23.5997    9.3164 H   0  0  0  0  0  0  0  0  0  0  0  0
    2.0637  -15.2700    8.1569 H   0  0  0  0  0  0  0  0  0  0  0  0
    3.0175  -13.3704    8.4689 H   0  0  0  0  0  0  0  0  0  0  0  0
    4.0364  -13.7028    7.0592 H   0  0  0  0  0  0  0  0  0  0  0  0
    6.4918  -10.0325    9.2801 H   0  0  0  0  0  0  0  0  0  0  0  0
    7.8806  -12.2254   10.2760 H   0  0  0  0  0  0  0  0  0  0  0  0
    6.4459  -14.2235    9.5587 H   0  0  0  0  0  0  0  0  0  0  0  0
  1  2  1  0
  2  3  1  0
  3  4  1  0
  4  5  1  0
  4  6  1  0
  6  7  1  0
  7  8  2  0
  7  9  1  0
  9 10  1  0
 10 11  1  0
 11 12  2  0
 12 13  1  0
 13 14  2  0
  2 15  1  0
 15 16  1  0
 16 17  2  0
 16 18  1  0
 18 19  1  0
 19 20  2  0
 20 21  1  0
 21 22  2  0
 22 23  1  0
 14 10  1  0
 23 19  1  0
  1 24  1  0
  1 25  1  0
  1 26  1  0
  2 27  1  0
  3 28  1  0
  3 29  1  0
  4 30  1  0
  5 31  1  0
  5 32  1  0
  5 33  1  0
  6 34  1  0
  9 35  1  0
  9 36  1  0
 11 37  1  0
 12 38  1  0
 13 39  1  0
 15 40  1  0
 18 41  1  0
 18 42  1  0
 21 43  1  0
 22 44  1  0
 23 45  1  0
M  END
>  <Energy>  (213) 
32.272968387193089

>  <compound_id>  (213) 
18004

>  <target_id>  (213) 
1

>  <reference_id>  (213) 
112

>  <inspiration_ids>  (213) 
[112, 63]

>  <energy_score>  (213) 
-26.697139095898592

>  <distance_score>  (213) 
13.199075770075927

>  <path>  (213) 
/opt/xchem-fragalysis-2/maxwin/BulkDock/SCRATCH/511024/C18004-P112/C18004-P112.minimised.mol

>  <scratch_subdir>  (213) 
/opt/xchem-fragalysis-2/maxwin/BulkDock/SCRATCH/511024/C18004-P112

>  <fragmenstein_runtime>  (213) 
29.761072158813477

>  <fragmenstein_outcome>  (213) 
too moved

>  <fragmenstein_mode>  (213) 
expansion

>  <fragmenstein_error>  (213) 


$$$$
C18004-P63
     RDKit          3D

 45 46  0  0  0  0  0  0  0  0999 V2000
   -9.3250  -23.5881   14.8022 C   0  0  0  0  0  0  0  0  0  0  0  0
   -8.8994  -22.2275   14.5455 C   0  0  0  0  0  0  0  0  0  0  0  0
   -9.6708  -22.0097   13.0997 C   0  0  0  0  0  0  0  0  0  0  0  0
  -10.2444  -23.1271   12.1369 C   0  0  0  0  0  0  0  0  0  0  0  0
  -11.5990  -23.7532   12.4884 C   0  0  0  0  0  0  0  0  0  0  0  0
   -9.3698  -24.1818   11.6606 N   0  0  0  0  0  0  0  0  0  0  0  0
   -9.2558  -25.5711   12.0552 C   0  0  0  0  0  0  0  0  0  0  0  0
   -9.8014  -26.1843   12.9334 O   0  0  0  0  0  0  0  0  0  0  0  0
   -8.3626  -26.3504   11.1086 C   0  0  0  0  0  0  0  0  0  0  0  0
   -9.2152  -27.3295   10.4666 N   0  0  0  0  0  0  0  0  0  0  0  0
   -9.4557  -28.6038   10.8930 C   0  0  0  0  0  0  0  0  0  0  0  0
  -10.5057  -29.0625   10.1366 C   0  0  0  0  0  0  0  0  0  0  0  0
  -10.8067  -28.0021    9.2635 C   0  0  0  0  0  0  0  0  0  0  0  0
  -10.0039  -26.9490    9.4392 N   0  0  0  0  0  0  0  0  0  0  0  0
   -9.0222  -21.1301   15.7347 N   0  0  0  0  0  0  0  0  0  0  0  0
   -7.9058  -20.5680   16.7817 C   0  0  0  0  0  0  0  0  0  0  0  0
   -6.7490  -20.9098   16.9641 O   0  0  0  0  0  0  0  0  0  0  0  0
   -8.2640  -19.3145   17.6447 C   0  0  0  0  0  0  0  0  0  0  0  0
   -6.9612  -18.3174   17.6649 C   0  0  0  0  0  0  0  0  0  0  0  0
   -6.2501  -17.9305   18.7210 N   0  0  0  0  0  0  0  0  0  0  0  0
   -5.1437  -17.2614   18.2391 C   0  0  0  0  0  0  0  0  0  0  0  0
   -5.2225  -17.1083   16.8796 C   0  0  0  0  0  0  0  0  0  0  0  0
   -6.3694  -17.7786   16.5242 N   0  0  0  0  0  0  0  0  0  0  0  0
  -10.3449  -23.7974   14.9550 H   0  0  0  0  0  0  0  0  0  0  0  0
   -8.7035  -23.8440   15.6000 H   0  0  0  0  0  0  0  0  0  0  0  0
   -9.1331  -24.2892   14.0187 H   0  0  0  0  0  0  0  0  0  0  0  0
   -7.8557  -22.1583   14.2978 H   0  0  0  0  0  0  0  0  0  0  0  0
  -10.5041  -21.3206   13.2400 H   0  0  0  0  0  0  0  0  0  0  0  0
   -8.9312  -21.5022   12.4622 H   0  0  0  0  0  0  0  0  0  0  0  0
  -10.4407  -22.5731   11.2091 H   0  0  0  0  0  0  0  0  0  0  0  0
  -11.9627  -24.3561   11.6460 H   0  0  0  0  0  0  0  0  0  0  0  0
  -12.3661  -23.0134   12.6805 H   0  0  0  0  0  0  0  0  0  0  0  0
  -11.5571  -24.4262   13.3448 H   0  0  0  0  0  0  0  0  0  0  0  0
   -8.8238  -24.0305   10.8237 H   0  0  0  0  0  0  0  0  0  0  0  0
   -7.5831  -26.8700   11.6734 H   0  0  0  0  0  0  0  0  0  0  0  0
   -7.8934  -25.7413   10.3324 H   0  0  0  0  0  0  0  0  0  0  0  0
   -8.9105  -29.0442   11.7165 H   0  0  0  0  0  0  0  0  0  0  0  0
  -10.9932  -30.0236   10.2116 H   0  0  0  0  0  0  0  0  0  0  0  0
  -11.5742  -27.9569    8.5017 H   0  0  0  0  0  0  0  0  0  0  0  0
   -9.8383  -20.5765   15.7910 H   0  0  0  0  0  0  0  0  0  0  0  0
   -8.4864  -19.6179   18.6707 H   0  0  0  0  0  0  0  0  0  0  0  0
   -9.0843  -18.7438   17.2085 H   0  0  0  0  0  0  0  0  0  0  0  0
   -4.3657  -16.9353   18.9135 H   0  0  0  0  0  0  0  0  0  0  0  0
   -4.5738  -16.6486   16.1471 H   0  0  0  0  0  0  0  0  0  0  0  0
   -6.6819  -17.9479   15.5802 H   0  0  0  0  0  0  0  0  0  0  0  0
  1  2  1  0
  2  3  1  0
  3  4  1  0
  4  5  1  0
  4  6  1  0
  6  7  1  0
  7  8  2  0
  7  9  1  0
  9 10  1  0
 10 11  1  0
 11 12  2  0
 12 13  1  0
 13 14  2  0
  2 15  1  0
 15 16  1  0
 16 17  2  0
 16 18  1  0
 18 19  1  0
 19 20  2  0
 20 21  1  0
 21 22  2  0
 22 23  1  0
 14 10  1  0
 23 19  1  0
  1 24  1  0
  1 25  1  0
  1 26  1  0
  2 27  1  0
  3 28  1  0
  3 29  1  0
  4 30  1  0
  5 31  1  0
  5 32  1  0
  5 33  1  0
  6 34  1  0
  9 35  1  0
  9 36  1  0
 11 37  1  0
 12 38  1  0
 13 39  1  0
 15 40  1  0
 18 41  1  0
 18 42  1  0
 21 43  1  0
 22 44  1  0
 23 45  1  0
M  END
>  <Energy>  (214) 
115.61043057169127

>  <compound_id>  (214) 
18004

>  <target_id>  (214) 
1

>  <reference_id>  (214) 
63

>  <inspiration_ids>  (214) 
[112, 63]

>  <energy_score>  (214) 
56.64032308860328

>  <distance_score>  (214) 
14.569579484243356

>  <path>  (214) 
/opt/xchem-fragalysis-2/maxwin/BulkDock/SCRATCH/511024/C18004-P63/C18004-P63.minimised.mol

>  <scratch_subdir>  (214) 
/opt/xchem-fragalysis-2/maxwin/BulkDock/SCRATCH/511024/C18004-P63

>  <fragmenstein_runtime>  (214) 
17.18795084953308

>  <fragmenstein_outcome>  (214) 
too moved

>  <fragmenstein_mode>  (214) 
expansion

>  <fragmenstein_error>  (214) 


$$$$
C18005-P112
     RDKit          3D

 42 43  0  0  0  0  0  0  0  0999 V2000
    3.4750  -11.5610    9.8704 C   0  0  0  0  0  0  0  0  0  0  0  0
    2.5741  -12.6236    9.4961 C   0  0  0  0  0  0  0  0  0  0  0  0
    1.4253  -12.6588   10.9496 C   0  0  0  0  0  0  0  0  0  0  0  0
    0.2989  -13.5005   11.3292 C   0  0  0  0  0  0  0  0  0  0  0  0
   -0.3465  -13.7588   12.5270 C   0  0  0  0  0  0  0  0  0  0  0  0
    0.5412  -12.1697   13.0948 C   0  0  0  0  0  0  0  0  0  0  0  0
    1.9278  -10.8619   12.8799 N   0  0  0  0  0  0  0  0  0  0  0  0
    3.4116  -10.4375   13.9784 C   0  0  0  0  0  0  0  0  0  0  0  0
    3.7988  -11.0156   15.0261 O   0  0  0  0  0  0  0  0  0  0  0  0
    4.3248   -9.4285   13.6296 C   0  0  0  0  0  0  0  0  0  0  0  0
    5.5308   -9.5603   14.0664 N   0  0  0  0  0  0  0  0  0  0  0  0
    6.1710   -8.0200   14.1438 C   0  0  0  0  0  0  0  0  0  0  0  0
    5.2874   -7.3766   13.4963 C   0  0  0  0  0  0  0  0  0  0  0  0
    4.1647   -8.0529   13.4310 N   0  0  0  0  0  0  0  0  0  0  0  0
   -1.2492  -14.8818   11.3199 N   0  0  0  0  0  0  0  0  0  0  0  0
   -2.8050  -15.2080   11.1519 C   0  0  0  0  0  0  0  0  0  0  0  0
   -3.7802  -14.7356   11.7205 O   0  0  0  0  0  0  0  0  0  0  0  0
   -3.1359  -16.3566   10.2178 C   0  0  0  0  0  0  0  0  0  0  0  0
   -4.4718  -16.8273    9.9743 C   0  0  0  0  0  0  0  0  0  0  0  0
   -4.3422  -18.0807    9.4336 C   0  0  0  0  0  0  0  0  0  0  0  0
   -3.0035  -18.3046    9.3520 N   0  0  0  0  0  0  0  0  0  0  0  0
   -2.2449  -17.2789    9.7990 N   0  0  0  0  0  0  0  0  0  0  0  0
    3.0064  -10.7422   10.3957 H   0  0  0  0  0  0  0  0  0  0  0  0
    3.9795  -11.2075    8.9834 H   0  0  0  0  0  0  0  0  0  0  0  0
    4.1076  -12.0858   10.5570 H   0  0  0  0  0  0  0  0  0  0  0  0
    3.0568  -13.5746    9.2926 H   0  0  0  0  0  0  0  0  0  0  0  0
    2.2291  -12.3287    8.4977 H   0  0  0  0  0  0  0  0  0  0  0  0
    1.1438  -11.6206   11.1552 H   0  0  0  0  0  0  0  0  0  0  0  0
    1.7239  -13.3769   11.6989 H   0  0  0  0  0  0  0  0  0  0  0  0
    0.6721  -14.5633   11.2105 H   0  0  0  0  0  0  0  0  0  0  0  0
   -0.5433  -13.0131   10.9214 H   0  0  0  0  0  0  0  0  0  0  0  0
    0.3438  -14.4511   12.8932 H   0  0  0  0  0  0  0  0  0  0  0  0
    1.1622  -12.5559   13.8514 H   0  0  0  0  0  0  0  0  0  0  0  0
   -0.4155  -11.6506   13.1343 H   0  0  0  0  0  0  0  0  0  0  0  0
    1.8633  -10.1971   12.1119 H   0  0  0  0  0  0  0  0  0  0  0  0
    7.0241   -7.6114   14.5769 H   0  0  0  0  0  0  0  0  0  0  0  0
    5.6392   -6.7299   12.7556 H   0  0  0  0  0  0  0  0  0  0  0  0
    3.4823   -7.8483   12.7312 H   0  0  0  0  0  0  0  0  0  0  0  0
   -0.7062  -15.5228   10.7481 H   0  0  0  0  0  0  0  0  0  0  0  0
   -5.3888  -16.3279   10.2591 H   0  0  0  0  0  0  0  0  0  0  0  0
   -5.0648  -18.8182    9.1272 H   0  0  0  0  0  0  0  0  0  0  0  0
   -2.5291  -19.1339    9.0072 H   0  0  0  0  0  0  0  0  0  0  0  0
  1  2  1  0
  2  3  1  0
  3  4  1  0
  4  5  1  0
  5  6  1  0
  6  7  1  0
  7  8  1  0
  8  9  2  0
  8 10  1  0
 10 11  2  0
 11 12  1  0
 12 13  2  0
 13 14  1  0
  5 15  1  0
 15 16  1  0
 16 17  2  0
 16 18  1  0
 18 19  1  0
 19 20  2  0
 20 21  1  0
 21 22  1  0
 14 10  1  0
 22 18  2  0
  1 23  1  0
  1 24  1  0
  1 25  1  0
  2 26  1  0
  2 27  1  0
  3 28  1  0
  3 29  1  0
  4 30  1  0
  4 31  1  0
  5 32  1  0
  6 33  1  0
  6 34  1  0
  7 35  1  0
 12 36  1  0
 13 37  1  0
 14 38  1  0
 15 39  1  0
 19 40  1  0
 20 41  1  0
 21 42  1  0
M  END
>  <Energy>  (215) 
667.13359408656277

>  <compound_id>  (215) 
18005

>  <target_id>  (215) 
1

>  <reference_id>  (215) 
112

>  <inspiration_ids>  (215) 
[112, 63]

>  <energy_score>  (215) 
590.9341996920516

>  <distance_score>  (215) 
11.377172536668825

>  <path>  (215) 
/opt/xchem-fragalysis-2/maxwin/BulkDock/SCRATCH/511024/C18005-P112/C18005-P112.minimised.mol

>  <scratch_subdir>  (215) 
/opt/xchem-fragalysis-2/maxwin/BulkDock/SCRATCH/511024/C18005-P112

>  <fragmenstein_runtime>  (215) 
27.953145742416382

>  <fragmenstein_outcome>  (215) 
too moved

>  <fragmenstein_mode>  (215) 
expansion

>  <fragmenstein_error>  (215) 


$$$$
C18005-P63
     RDKit          3D

 42 43  0  0  0  0  0  0  0  0999 V2000
    2.7475  -11.5602   10.4999 C   0  0  0  0  0  0  0  0  0  0  0  0
    1.4891  -11.0227   11.2859 C   0  0  0  0  0  0  0  0  0  0  0  0
    0.1110  -11.6952   11.7408 C   0  0  0  0  0  0  0  0  0  0  0  0
   -1.0166  -10.7273   12.4471 C   0  0  0  0  0  0  0  0  0  0  0  0
   -2.1391   -9.1104   12.7453 C   0  0  0  0  0  0  0  0  0  0  0  0
   -0.7469   -7.3576   12.1321 C   0  0  0  0  0  0  0  0  0  0  0  0
    0.0020   -6.9179   10.1611 N   0  0  0  0  0  0  0  0  0  0  0  0
   -0.2759   -6.3746    9.1760 C   0  0  0  0  0  0  0  0  0  0  0  0
   -1.8164   -5.9107    9.4599 O   0  0  0  0  0  0  0  0  0  0  0  0
    0.1694   -5.8323    7.9135 C   0  0  0  0  0  0  0  0  0  0  0  0
    0.9763   -4.7623    7.9174 N   0  0  0  0  0  0  0  0  0  0  0  0
    1.1053   -4.3661    6.6224 C   0  0  0  0  0  0  0  0  0  0  0  0
    0.3334   -5.1645    5.8174 C   0  0  0  0  0  0  0  0  0  0  0  0
   -0.3076   -6.0426    6.6569 N   0  0  0  0  0  0  0  0  0  0  0  0
   -4.1679   -9.4053   12.4865 N   0  0  0  0  0  0  0  0  0  0  0  0
   -4.9840   -9.7186   11.2466 C   0  0  0  0  0  0  0  0  0  0  0  0
   -4.6570   -9.7833   10.0809 O   0  0  0  0  0  0  0  0  0  0  0  0
   -6.3948  -10.0990   11.6425 C   0  0  0  0  0  0  0  0  0  0  0  0
   -7.3046  -10.8226   10.7956 C   0  0  0  0  0  0  0  0  0  0  0  0
   -8.2102  -11.4391   11.6281 C   0  0  0  0  0  0  0  0  0  0  0  0
   -7.8567  -11.0640   12.8860 N   0  0  0  0  0  0  0  0  0  0  0  0
   -6.7799  -10.2492   12.9365 N   0  0  0  0  0  0  0  0  0  0  0  0
    2.8332  -12.6405   10.4484 H   0  0  0  0  0  0  0  0  0  0  0  0
    2.8889  -11.1655    9.4841 H   0  0  0  0  0  0  0  0  0  0  0  0
    3.6014  -11.1439   10.9754 H   0  0  0  0  0  0  0  0  0  0  0  0
    1.2835  -10.0317   10.8737 H   0  0  0  0  0  0  0  0  0  0  0  0
    1.9591  -10.9905   12.2274 H   0  0  0  0  0  0  0  0  0  0  0  0
   -0.2634  -12.4583   11.0993 H   0  0  0  0  0  0  0  0  0  0  0  0
    0.3354  -12.3763   12.5741 H   0  0  0  0  0  0  0  0  0  0  0  0
   -0.1379  -10.1263   12.4145 H   0  0  0  0  0  0  0  0  0  0  0  0
   -1.0525  -11.1343   13.4359 H   0  0  0  0  0  0  0  0  0  0  0  0
   -1.9384   -9.1835   13.8697 H   0  0  0  0  0  0  0  0  0  0  0  0
   -1.2322   -6.8521   11.3377 H   0  0  0  0  0  0  0  0  0  0  0  0
   -0.7247   -6.5615   12.9012 H   0  0  0  0  0  0  0  0  0  0  0  0
    0.6532   -7.3850   10.8296 H   0  0  0  0  0  0  0  0  0  0  0  0
    1.7320   -3.5310    6.3388 H   0  0  0  0  0  0  0  0  0  0  0  0
    0.1484   -5.1603    4.7529 H   0  0  0  0  0  0  0  0  0  0  0  0
   -1.0308   -6.7043    6.4079 H   0  0  0  0  0  0  0  0  0  0  0  0
   -4.7643   -9.5280   13.3264 H   0  0  0  0  0  0  0  0  0  0  0  0
   -7.2092  -10.9525    9.7258 H   0  0  0  0  0  0  0  0  0  0  0  0
   -9.0369  -12.1080   11.4381 H   0  0  0  0  0  0  0  0  0  0  0  0
   -8.2975  -11.3262   13.7613 H   0  0  0  0  0  0  0  0  0  0  0  0
  1  2  1  0
  2  3  1  0
  3  4  1  0
  4  5  1  0
  5  6  1  0
  6  7  1  0
  7  8  1  0
  8  9  2  0
  8 10  1  0
 10 11  2  0
 11 12  1  0
 12 13  2  0
 13 14  1  0
  5 15  1  0
 15 16  1  0
 16 17  2  0
 16 18  1  0
 18 19  1  0
 19 20  2  0
 20 21  1  0
 21 22  1  0
 14 10  1  0
 22 18  2  0
  1 23  1  0
  1 24  1  0
  1 25  1  0
  2 26  1  0
  2 27  1  0
  3 28  1  0
  3 29  1  0
  4 30  1  0
  4 31  1  0
  5 32  1  0
  6 33  1  0
  6 34  1  0
  7 35  1  0
 12 36  1  0
 13 37  1  0
 14 38  1  0
 15 39  1  0
 19 40  1  0
 20 41  1  0
 21 42  1  0
M  END
>  <Energy>  (216) 
895.5450380517035

>  <compound_id>  (216) 
18005

>  <target_id>  (216) 
1

>  <reference_id>  (216) 
63

>  <inspiration_ids>  (216) 
[112, 63]

>  <energy_score>  (216) 
819.3456436571942

>  <distance_score>  (216) 
15.598956367605531

>  <path>  (216) 
/opt/xchem-fragalysis-2/maxwin/BulkDock/SCRATCH/511024/C18005-P63/C18005-P63.minimised.mol

>  <scratch_subdir>  (216) 
/opt/xchem-fragalysis-2/maxwin/BulkDock/SCRATCH/511024/C18005-P63

>  <fragmenstein_runtime>  (216) 
16.077420234680176

>  <fragmenstein_outcome>  (216) 
too moved

>  <fragmenstein_mode>  (216) 
expansion

>  <fragmenstein_error>  (216) 


$$$$
C18006-P112
     RDKit          3D

 45 46  0  0  0  0  0  0  0  0999 V2000
    4.6948  -18.7967   13.1235 C   0  0  0  0  0  0  0  0  0  0  0  0
    4.6840  -19.1152   11.6380 C   0  0  0  0  0  0  0  0  0  0  0  0
    3.4681  -18.5116   10.9298 C   0  0  0  0  0  0  0  0  0  0  0  0
    3.5014  -18.8320    9.4379 C   0  0  0  0  0  0  0  0  0  0  0  0
    2.2635  -18.3798    8.6447 C   0  0  0  0  0  0  0  0  0  0  0  0
    1.9766  -16.8495    8.6480 C   0  0  0  0  0  0  0  0  0  0  0  0
    3.0094  -15.8041    8.6594 N   0  0  0  0  0  0  0  0  0  0  0  0
    4.2780  -15.7238    7.9943 C   0  0  0  0  0  0  0  0  0  0  0  0
    4.8581  -16.5243    7.3200 O   0  0  0  0  0  0  0  0  0  0  0  0
    4.9082  -14.3930    8.2771 C   0  0  0  0  0  0  0  0  0  0  0  0
    4.2728  -13.3365    8.7774 N   0  0  0  0  0  0  0  0  0  0  0  0
    5.2227  -12.3619    8.9847 C   0  0  0  0  0  0  0  0  0  0  0  0
    6.4606  -12.8056    8.5965 C   0  0  0  0  0  0  0  0  0  0  0  0
    6.2451  -14.0760    8.1207 N   0  0  0  0  0  0  0  0  0  0  0  0
    1.0668  -19.1902    9.0486 N   0  0  0  0  0  0  0  0  0  0  0  0
    0.8266  -20.6099    8.9971 C   0  0  0  0  0  0  0  0  0  0  0  0
    1.4909  -21.4974    8.5457 O   0  0  0  0  0  0  0  0  0  0  0  0
   -0.5002  -21.0254    9.6149 C   0  0  0  0  0  0  0  0  0  0  0  0
   -0.8699  -22.3855    9.8949 C   0  0  0  0  0  0  0  0  0  0  0  0
   -2.1374  -22.3529   10.4162 C   0  0  0  0  0  0  0  0  0  0  0  0
   -2.4953  -21.0419   10.4037 N   0  0  0  0  0  0  0  0  0  0  0  0
   -3.7943  -20.5402   10.7770 C   0  0  0  0  0  0  0  0  0  0  0  0
   -1.5159  -20.1968    9.9656 N   0  0  0  0  0  0  0  0  0  0  0  0
    3.7891  -19.1684   13.6129 H   0  0  0  0  0  0  0  0  0  0  0  0
    5.5582  -19.2665   13.6051 H   0  0  0  0  0  0  0  0  0  0  0  0
    4.7623  -17.7179   13.2908 H   0  0  0  0  0  0  0  0  0  0  0  0
    4.6850  -20.2037   11.5072 H   0  0  0  0  0  0  0  0  0  0  0  0
    5.6063  -18.7342   11.1838 H   0  0  0  0  0  0  0  0  0  0  0  0
    3.4710  -17.4272   11.0676 H   0  0  0  0  0  0  0  0  0  0  0  0
    2.5501  -18.9040   11.3813 H   0  0  0  0  0  0  0  0  0  0  0  0
    4.4005  -18.3860    9.0012 H   0  0  0  0  0  0  0  0  0  0  0  0
    3.6229  -19.9159    9.3138 H   0  0  0  0  0  0  0  0  0  0  0  0
    2.4544  -18.6706    7.6032 H   0  0  0  0  0  0  0  0  0  0  0  0
    1.3363  -16.6240    7.7868 H   0  0  0  0  0  0  0  0  0  0  0  0
    1.3710  -16.6330    9.5368 H   0  0  0  0  0  0  0  0  0  0  0  0
    2.7958  -14.9013    9.0725 H   0  0  0  0  0  0  0  0  0  0  0  0
    4.9425  -11.4051    9.4003 H   0  0  0  0  0  0  0  0  0  0  0  0
    7.4397  -12.3490    8.5987 H   0  0  0  0  0  0  0  0  0  0  0  0
    6.9343  -14.7160    7.7492 H   0  0  0  0  0  0  0  0  0  0  0  0
    0.2452  -18.7295    9.4330 H   0  0  0  0  0  0  0  0  0  0  0  0
   -0.2577  -23.2609    9.7237 H   0  0  0  0  0  0  0  0  0  0  0  0
   -2.7991  -23.1327   10.7689 H   0  0  0  0  0  0  0  0  0  0  0  0
   -4.5366  -21.3327   10.6494 H   0  0  0  0  0  0  0  0  0  0  0  0
   -3.7530  -20.2360   11.8241 H   0  0  0  0  0  0  0  0  0  0  0  0
   -4.0460  -19.7034   10.1221 H   0  0  0  0  0  0  0  0  0  0  0  0
  1  2  1  0
  2  3  1  0
  3  4  1  0
  4  5  1  0
  5  6  1  0
  6  7  1  0
  7  8  1  0
  8  9  2  0
  8 10  1  0
 10 11  2  0
 11 12  1  0
 12 13  2  0
 13 14  1  0
  5 15  1  0
 15 16  1  0
 16 17  2  0
 16 18  1  0
 18 19  1  0
 19 20  2  0
 20 21  1  0
 21 22  1  0
 21 23  1  0
 14 10  1  0
 23 18  2  0
  1 24  1  0
  1 25  1  0
  1 26  1  0
  2 27  1  0
  2 28  1  0
  3 29  1  0
  3 30  1  0
  4 31  1  0
  4 32  1  0
  5 33  1  0
  6 34  1  0
  6 35  1  0
  7 36  1  0
 12 37  1  0
 13 38  1  0
 14 39  1  0
 15 40  1  0
 19 41  1  0
 20 42  1  0
 22 43  1  0
 22 44  1  0
 22 45  1  0
M  END
>  <Energy>  (217) 
47.77296401472934

>  <compound_id>  (217) 
18006

>  <target_id>  (217) 
1

>  <reference_id>  (217) 
112

>  <inspiration_ids>  (217) 
[112, 63]

>  <energy_score>  (217) 
-34.387866859024996

>  <distance_score>  (217) 
13.347221738276684

>  <path>  (217) 
/opt/xchem-fragalysis-2/maxwin/BulkDock/SCRATCH/511024/C18006-P112/C18006-P112.minimised.mol

>  <scratch_subdir>  (217) 
/opt/xchem-fragalysis-2/maxwin/BulkDock/SCRATCH/511024/C18006-P112

>  <fragmenstein_runtime>  (217) 
45.79674482345581

>  <fragmenstein_outcome>  (217) 
too moved

>  <fragmenstein_mode>  (217) 
expansion

>  <fragmenstein_error>  (217) 


$$$$
C18006-P63
     RDKit          3D

 45 46  0  0  0  0  0  0  0  0999 V2000
   -4.8561  -10.1266   13.6782 C   0  0  0  0  0  0  0  0  0  0  0  0
   -3.1328   -9.9100   14.6892 C   0  0  0  0  0  0  0  0  0  0  0  0
   -1.6055   -9.8121   13.4407 C   0  0  0  0  0  0  0  0  0  0  0  0
   -0.8150  -10.9300   12.5699 C   0  0  0  0  0  0  0  0  0  0  0  0
   -0.6846  -11.6205   13.8520 C   0  0  0  0  0  0  0  0  0  0  0  0
   -0.6455   -9.9683   15.4246 C   0  0  0  0  0  0  0  0  0  0  0  0
    0.6622   -8.5777   16.2171 N   0  0  0  0  0  0  0  0  0  0  0  0
    2.1260   -8.7481   17.4706 C   0  0  0  0  0  0  0  0  0  0  0  0
    2.2626   -9.8000   17.9534 O   0  0  0  0  0  0  0  0  0  0  0  0
    3.5444   -7.6610   17.9963 C   0  0  0  0  0  0  0  0  0  0  0  0
    4.4407   -6.7042   17.1025 N   0  0  0  0  0  0  0  0  0  0  0  0
    5.6326   -6.3485   17.6054 C   0  0  0  0  0  0  0  0  0  0  0  0
    5.7127   -6.8914   18.8142 C   0  0  0  0  0  0  0  0  0  0  0  0
    4.8720   -8.0690   18.5094 N   0  0  0  0  0  0  0  0  0  0  0  0
   -1.2403  -13.3217   14.1578 N   0  0  0  0  0  0  0  0  0  0  0  0
   -2.9003  -14.1364   13.8267 C   0  0  0  0  0  0  0  0  0  0  0  0
   -3.8960  -13.7130   13.2068 O   0  0  0  0  0  0  0  0  0  0  0  0
   -3.0374  -15.8122   14.8056 C   0  0  0  0  0  0  0  0  0  0  0  0
   -3.3544  -15.5177   16.2460 C   0  0  0  0  0  0  0  0  0  0  0  0
   -4.1995  -16.5414   16.7423 C   0  0  0  0  0  0  0  0  0  0  0  0
   -4.2532  -17.4066   15.7153 N   0  0  0  0  0  0  0  0  0  0  0  0
   -4.4788  -18.8178   15.7692 C   0  0  0  0  0  0  0  0  0  0  0  0
   -3.8544  -16.8742   14.5785 N   0  0  0  0  0  0  0  0  0  0  0  0
   -4.9381   -9.2337   13.0471 H   0  0  0  0  0  0  0  0  0  0  0  0
   -4.9386  -11.0317   13.0820 H   0  0  0  0  0  0  0  0  0  0  0  0
   -5.7254  -10.2409   14.2931 H   0  0  0  0  0  0  0  0  0  0  0  0
   -3.2605   -9.9234   15.8161 H   0  0  0  0  0  0  0  0  0  0  0  0
   -3.0775   -8.9101   14.8611 H   0  0  0  0  0  0  0  0  0  0  0  0
   -1.2744   -8.7332   13.6876 H   0  0  0  0  0  0  0  0  0  0  0  0
   -2.1339   -9.5978   12.5233 H   0  0  0  0  0  0  0  0  0  0  0  0
    0.1424  -10.5903   12.1245 H   0  0  0  0  0  0  0  0  0  0  0  0
   -1.0330  -11.4885   11.6950 H   0  0  0  0  0  0  0  0  0  0  0  0
    0.3309  -12.1740   13.7189 H   0  0  0  0  0  0  0  0  0  0  0  0
   -1.3060   -9.3868   15.0196 H   0  0  0  0  0  0  0  0  0  0  0  0
   -1.2727   -9.6159   16.4519 H   0  0  0  0  0  0  0  0  0  0  0  0
    0.6958   -7.7055   15.8260 H   0  0  0  0  0  0  0  0  0  0  0  0
    6.3996   -5.9429   16.9941 H   0  0  0  0  0  0  0  0  0  0  0  0
    6.4748   -6.9910   19.5734 H   0  0  0  0  0  0  0  0  0  0  0  0
    5.0928   -8.9914   18.8575 H   0  0  0  0  0  0  0  0  0  0  0  0
   -0.6894  -13.8798   14.7462 H   0  0  0  0  0  0  0  0  0  0  0  0
   -2.9334  -14.6224   16.6769 H   0  0  0  0  0  0  0  0  0  0  0  0
   -4.5500  -16.7928   17.7258 H   0  0  0  0  0  0  0  0  0  0  0  0
   -3.5110  -19.3262   15.7847 H   0  0  0  0  0  0  0  0  0  0  0  0
   -5.0220  -19.0823   14.8632 H   0  0  0  0  0  0  0  0  0  0  0  0
   -5.0414  -19.0639   16.6716 H   0  0  0  0  0  0  0  0  0  0  0  0
  1  2  1  0
  2  3  1  0
  3  4  1  0
  4  5  1  0
  5  6  1  0
  6  7  1  0
  7  8  1  0
  8  9  2  0
  8 10  1  0
 10 11  2  0
 11 12  1  0
 12 13  2  0
 13 14  1  0
  5 15  1  0
 15 16  1  0
 16 17  2  0
 16 18  1  0
 18 19  1  0
 19 20  2  0
 20 21  1  0
 21 22  1  0
 21 23  1  0
 14 10  1  0
 23 18  2  0
  1 24  1  0
  1 25  1  0
  1 26  1  0
  2 27  1  0
  2 28  1  0
  3 29  1  0
  3 30  1  0
  4 31  1  0
  4 32  1  0
  5 33  1  0
  6 34  1  0
  6 35  1  0
  7 36  1  0
 12 37  1  0
 13 38  1  0
 14 39  1  0
 15 40  1  0
 19 41  1  0
 20 42  1  0
 22 43  1  0
 22 44  1  0
 22 45  1  0
M  END
>  <Energy>  (218) 
1080.3191807452492

>  <compound_id>  (218) 
18006

>  <target_id>  (218) 
1

>  <reference_id>  (218) 
63

>  <inspiration_ids>  (218) 
[112, 63]

>  <energy_score>  (218) 
998.1583498715028

>  <distance_score>  (218) 
11.27791268735373

>  <path>  (218) 
/opt/xchem-fragalysis-2/maxwin/BulkDock/SCRATCH/511024/C18006-P63/C18006-P63.minimised.mol

>  <scratch_subdir>  (218) 
/opt/xchem-fragalysis-2/maxwin/BulkDock/SCRATCH/511024/C18006-P63

>  <fragmenstein_runtime>  (218) 
23.760425567626953

>  <fragmenstein_outcome>  (218) 
too moved

>  <fragmenstein_mode>  (218) 
expansion

>  <fragmenstein_error>  (218) 


$$$$
C18007-P112
     RDKit          3D

 42 43  0  0  0  0  0  0  0  0999 V2000
   -0.2014  -18.4486   10.7548 C   0  0  0  0  0  0  0  0  0  0  0  0
   -0.4275  -17.4233   12.0754 C   0  0  0  0  0  0  0  0  0  0  0  0
   -1.8614  -18.3167   13.6051 N   0  0  0  0  0  0  0  0  0  0  0  0
   -3.7363  -19.1786   12.8382 C   0  0  0  0  0  0  0  0  0  0  0  0
   -3.8549  -18.9333   11.8152 O   0  0  0  0  0  0  0  0  0  0  0  0
   -4.8133  -20.0426   13.1134 C   0  0  0  0  0  0  0  0  0  0  0  0
   -5.0919  -21.1659   12.1353 C   0  0  0  0  0  0  0  0  0  0  0  0
   -6.4192  -21.4696   12.2716 C   0  0  0  0  0  0  0  0  0  0  0  0
   -6.8177  -20.2253   12.0903 N   0  0  0  0  0  0  0  0  0  0  0  0
   -5.9715  -19.3644   12.6814 N   0  0  0  0  0  0  0  0  0  0  0  0
   -2.0125  -16.3428   14.6151 C   0  0  0  0  0  0  0  0  0  0  0  0
   -3.6546  -16.4271   15.5242 C   0  0  0  0  0  0  0  0  0  0  0  0
   -0.8415  -14.6160   15.6147 C   0  0  0  0  0  0  0  0  0  0  0  0
    0.8058  -13.8280   16.2301 N   0  0  0  0  0  0  0  0  0  0  0  0
    1.8239  -12.6066   15.4830 C   0  0  0  0  0  0  0  0  0  0  0  0
    1.6189  -12.1865   14.3716 O   0  0  0  0  0  0  0  0  0  0  0  0
    3.3203  -11.5700   16.3438 C   0  0  0  0  0  0  0  0  0  0  0  0
    4.1985  -11.2059   15.0864 C   0  0  0  0  0  0  0  0  0  0  0  0
    5.1315  -11.7872   14.3163 N   0  0  0  0  0  0  0  0  0  0  0  0
    5.7121  -10.7802   13.6433 C   0  0  0  0  0  0  0  0  0  0  0  0
    4.8789   -9.7435   13.8073 C   0  0  0  0  0  0  0  0  0  0  0  0
    3.7933  -10.2992   14.2066 N   0  0  0  0  0  0  0  0  0  0  0  0
    0.6834  -18.0943   10.2090 H   0  0  0  0  0  0  0  0  0  0  0  0
   -1.0236  -18.4339   10.0320 H   0  0  0  0  0  0  0  0  0  0  0  0
    0.0021  -19.4716   11.0932 H   0  0  0  0  0  0  0  0  0  0  0  0
    0.6636  -17.7235   12.2678 H   0  0  0  0  0  0  0  0  0  0  0  0
   -0.5136  -16.4207   11.5234 H   0  0  0  0  0  0  0  0  0  0  0  0
   -4.3845  -21.8917   11.7965 H   0  0  0  0  0  0  0  0  0  0  0  0
   -6.9766  -22.3845   12.2297 H   0  0  0  0  0  0  0  0  0  0  0  0
   -7.7024  -19.8766   11.7406 H   0  0  0  0  0  0  0  0  0  0  0  0
   -2.6166  -17.2598   14.8538 H   0  0  0  0  0  0  0  0  0  0  0  0
   -4.4648  -16.5903   14.8033 H   0  0  0  0  0  0  0  0  0  0  0  0
   -3.6855  -15.6244   16.2557 H   0  0  0  0  0  0  0  0  0  0  0  0
   -3.7615  -17.3088   16.1994 H   0  0  0  0  0  0  0  0  0  0  0  0
   -0.9303  -14.5158   16.8314 H   0  0  0  0  0  0  0  0  0  0  0  0
   -1.5326  -13.8278   15.8189 H   0  0  0  0  0  0  0  0  0  0  0  0
    1.2127  -14.0886   17.1233 H   0  0  0  0  0  0  0  0  0  0  0  0
    3.0464  -10.6278   16.8271 H   0  0  0  0  0  0  0  0  0  0  0  0
    3.7279  -12.0383   17.2493 H   0  0  0  0  0  0  0  0  0  0  0  0
    6.7271  -10.8045   13.2699 H   0  0  0  0  0  0  0  0  0  0  0  0
    4.7769   -8.6652   13.7076 H   0  0  0  0  0  0  0  0  0  0  0  0
    2.9438   -9.7992   14.1474 H   0  0  0  0  0  0  0  0  0  0  0  0
  1  2  1  0
  2  3  1  0
  3  4  1  0
  4  5  2  0
  4  6  1  0
  6  7  1  0
  7  8  2  0
  8  9  1  0
  9 10  1  0
  3 11  1  0
 11 12  1  0
 11 13  1  0
 13 14  1  0
 14 15  1  0
 15 16  2  0
 15 17  1  0
 17 18  1  0
 18 19  2  0
 19 20  1  0
 20 21  2  0
 21 22  1  0
 10  6  2  0
 22 18  1  0
  1 23  1  0
  1 24  1  0
  1 25  1  0
  2 26  1  0
  2 27  1  0
  7 28  1  0
  8 29  1  0
  9 30  1  0
 11 31  1  0
 12 32  1  0
 12 33  1  0
 12 34  1  0
 13 35  1  0
 13 36  1  0
 14 37  1  0
 17 38  1  0
 17 39  1  0
 20 40  1  0
 21 41  1  0
 22 42  1  0
M  END
>  <Energy>  (219) 
1640.6377952061082

>  <compound_id>  (219) 
18007

>  <target_id>  (219) 
1

>  <reference_id>  (219) 
112

>  <inspiration_ids>  (219) 
[112, 63]

>  <energy_score>  (219) 
1535.709857591884

>  <distance_score>  (219) 
9.937303707352973

>  <path>  (219) 
/opt/xchem-fragalysis-2/maxwin/BulkDock/SCRATCH/511024/C18007-P112/C18007-P112.minimised.mol

>  <scratch_subdir>  (219) 
/opt/xchem-fragalysis-2/maxwin/BulkDock/SCRATCH/511024/C18007-P112

>  <fragmenstein_runtime>  (219) 
17.57815194129944

>  <fragmenstein_outcome>  (219) 
too moved

>  <fragmenstein_mode>  (219) 
expansion

>  <fragmenstein_error>  (219) 


$$$$
C18007-P63
     RDKit          3D

 42 43  0  0  0  0  0  0  0  0999 V2000
   -4.2076  -22.3989   11.4592 C   0  0  0  0  0  0  0  0  0  0  0  0
   -3.7484  -20.4201   11.7683 C   0  0  0  0  0  0  0  0  0  0  0  0
   -4.4606  -20.9395   12.4557 N   0  0  0  0  0  0  0  0  0  0  0  0
   -6.0656  -20.6373   12.7922 C   0  0  0  0  0  0  0  0  0  0  0  0
   -6.6176  -19.6713   12.3511 O   0  0  0  0  0  0  0  0  0  0  0  0
   -7.2555  -21.6876   13.5533 C   0  0  0  0  0  0  0  0  0  0  0  0
   -8.3506  -22.1192   12.4521 C   0  0  0  0  0  0  0  0  0  0  0  0
   -9.4184  -22.7543   13.0294 C   0  0  0  0  0  0  0  0  0  0  0  0
   -9.1019  -22.7018   14.3321 N   0  0  0  0  0  0  0  0  0  0  0  0
   -7.8572  -22.2859   14.6190 N   0  0  0  0  0  0  0  0  0  0  0  0
   -2.6382  -20.3830   13.4223 C   0  0  0  0  0  0  0  0  0  0  0  0
   -2.5642  -21.8423   14.6523 C   0  0  0  0  0  0  0  0  0  0  0  0
   -0.6260  -19.4301   12.7462 C   0  0  0  0  0  0  0  0  0  0  0  0
    0.7689  -17.8934   13.0805 N   0  0  0  0  0  0  0  0  0  0  0  0
    0.8009  -15.8720   12.7017 C   0  0  0  0  0  0  0  0  0  0  0  0
   -0.1520  -15.4967   12.0448 O   0  0  0  0  0  0  0  0  0  0  0  0
    1.9951  -14.0538   13.3903 C   0  0  0  0  0  0  0  0  0  0  0  0
    3.9635  -13.0096   14.3307 C   0  0  0  0  0  0  0  0  0  0  0  0
    4.0219  -11.6574   14.9719 N   0  0  0  0  0  0  0  0  0  0  0  0
    4.5489  -10.8167   14.0278 C   0  0  0  0  0  0  0  0  0  0  0  0
    5.6807  -11.3376   13.5826 C   0  0  0  0  0  0  0  0  0  0  0  0
    5.4894  -12.6541   13.7535 N   0  0  0  0  0  0  0  0  0  0  0  0
   -4.5896  -22.6057   10.4563 H   0  0  0  0  0  0  0  0  0  0  0  0
   -3.3692  -23.0281   11.8519 H   0  0  0  0  0  0  0  0  0  0  0  0
   -4.9096  -23.1472   11.8955 H   0  0  0  0  0  0  0  0  0  0  0  0
   -4.2130  -20.0926   10.8702 H   0  0  0  0  0  0  0  0  0  0  0  0
   -4.2457  -19.5919   12.2951 H   0  0  0  0  0  0  0  0  0  0  0  0
   -8.3659  -21.7520   11.4428 H   0  0  0  0  0  0  0  0  0  0  0  0
  -10.3670  -23.1011   12.6522 H   0  0  0  0  0  0  0  0  0  0  0  0
   -9.6540  -22.9890   15.1222 H   0  0  0  0  0  0  0  0  0  0  0  0
   -2.1659  -20.2040   14.4170 H   0  0  0  0  0  0  0  0  0  0  0  0
   -1.5802  -21.9045   15.1405 H   0  0  0  0  0  0  0  0  0  0  0  0
   -3.2697  -21.6936   15.4694 H   0  0  0  0  0  0  0  0  0  0  0  0
   -2.6412  -22.8174   14.1577 H   0  0  0  0  0  0  0  0  0  0  0  0
    0.0697  -20.1837   13.1680 H   0  0  0  0  0  0  0  0  0  0  0  0
   -0.3315  -19.5515   11.6547 H   0  0  0  0  0  0  0  0  0  0  0  0
    1.6223  -18.1420   13.5443 H   0  0  0  0  0  0  0  0  0  0  0  0
    1.1856  -13.3005   13.8155 H   0  0  0  0  0  0  0  0  0  0  0  0
    1.3614  -13.8908   12.3650 H   0  0  0  0  0  0  0  0  0  0  0  0
    4.2221   -9.8387   13.7832 H   0  0  0  0  0  0  0  0  0  0  0  0
    6.6261  -10.9550   13.2177 H   0  0  0  0  0  0  0  0  0  0  0  0
    6.2406  -13.3197   13.8631 H   0  0  0  0  0  0  0  0  0  0  0  0
  1  2  1  0
  2  3  1  0
  3  4  1  0
  4  5  2  0
  4  6  1  0
  6  7  1  0
  7  8  2  0
  8  9  1  0
  9 10  1  0
  3 11  1  0
 11 12  1  0
 11 13  1  0
 13 14  1  0
 14 15  1  0
 15 16  2  0
 15 17  1  0
 17 18  1  0
 18 19  2  0
 19 20  1  0
 20 21  2  0
 21 22  1  0
 10  6  2  0
 22 18  1  0
  1 23  1  0
  1 24  1  0
  1 25  1  0
  2 26  1  0
  2 27  1  0
  7 28  1  0
  8 29  1  0
  9 30  1  0
 11 31  1  0
 12 32  1  0
 12 33  1  0
 12 34  1  0
 13 35  1  0
 13 36  1  0
 14 37  1  0
 17 38  1  0
 17 39  1  0
 20 40  1  0
 21 41  1  0
 22 42  1  0
M  END
>  <Energy>  (220) 
2089.4403490235472

>  <compound_id>  (220) 
18007

>  <target_id>  (220) 
1

>  <reference_id>  (220) 
63

>  <inspiration_ids>  (220) 
[112, 63]

>  <energy_score>  (220) 
1984.512411409322

>  <distance_score>  (220) 
9.13547998497886

>  <path>  (220) 
/opt/xchem-fragalysis-2/maxwin/BulkDock/SCRATCH/511024/C18007-P63/C18007-P63.minimised.mol

>  <scratch_subdir>  (220) 
/opt/xchem-fragalysis-2/maxwin/BulkDock/SCRATCH/511024/C18007-P63

>  <fragmenstein_runtime>  (220) 
35.13394808769226

>  <fragmenstein_outcome>  (220) 
too moved

>  <fragmenstein_mode>  (220) 
expansion

>  <fragmenstein_error>  (220) 


$$$$
C18008-P112
     RDKit          3D

 45 46  0  0  0  0  0  0  0  0999 V2000
   -5.2026  -23.3259    9.6703 C   0  0  0  0  0  0  0  0  0  0  0  0
   -5.2201  -21.9738   11.0481 C   0  0  0  0  0  0  0  0  0  0  0  0
   -6.2748  -22.6182   11.5020 N   0  0  0  0  0  0  0  0  0  0  0  0
   -6.2219  -24.2656   11.8215 C   0  0  0  0  0  0  0  0  0  0  0  0
   -5.3599  -25.0341   11.8308 O   0  0  0  0  0  0  0  0  0  0  0  0
   -7.6388  -24.8114   12.0311 C   0  0  0  0  0  0  0  0  0  0  0  0
   -8.0022  -26.1981   11.9477 C   0  0  0  0  0  0  0  0  0  0  0  0
   -9.3595  -26.2551   12.1522 C   0  0  0  0  0  0  0  0  0  0  0  0
   -9.7599  -24.9651   12.2945 N   0  0  0  0  0  0  0  0  0  0  0  0
  -11.1115  -24.5007   12.4871 C   0  0  0  0  0  0  0  0  0  0  0  0
   -8.7652  -24.0682   12.1679 N   0  0  0  0  0  0  0  0  0  0  0  0
   -4.9537  -21.1663   11.1625 C   0  0  0  0  0  0  0  0  0  0  0  0
   -4.7177  -20.3571    9.3985 C   0  0  0  0  0  0  0  0  0  0  0  0
   -3.9287  -20.1401   12.3966 C   0  0  0  0  0  0  0  0  0  0  0  0
   -2.3806  -19.8663   12.3273 N   0  0  0  0  0  0  0  0  0  0  0  0
   -1.5709  -19.0714   11.3634 C   0  0  0  0  0  0  0  0  0  0  0  0
   -1.9112  -18.3719   10.4445 O   0  0  0  0  0  0  0  0  0  0  0  0
   -0.0378  -19.3502   11.6233 C   0  0  0  0  0  0  0  0  0  0  0  0
    1.0181  -18.4165   11.0329 C   0  0  0  0  0  0  0  0  0  0  0  0
    2.3243  -18.6564   11.0640 N   0  0  0  0  0  0  0  0  0  0  0  0
    2.9384  -17.6313   10.3951 C   0  0  0  0  0  0  0  0  0  0  0  0
    1.9955  -16.7705    9.9006 C   0  0  0  0  0  0  0  0  0  0  0  0
    0.7949  -17.2249   10.3819 N   0  0  0  0  0  0  0  0  0  0  0  0
   -4.7311  -24.2606    9.9878 H   0  0  0  0  0  0  0  0  0  0  0  0
   -4.7481  -22.9900    8.7276 H   0  0  0  0  0  0  0  0  0  0  0  0
   -6.2096  -23.6580    9.3766 H   0  0  0  0  0  0  0  0  0  0  0  0
   -4.3724  -22.7680   11.4547 H   0  0  0  0  0  0  0  0  0  0  0  0
   -5.7427  -21.8479    9.9251 H   0  0  0  0  0  0  0  0  0  0  0  0
   -7.3269  -27.0263   11.7803 H   0  0  0  0  0  0  0  0  0  0  0  0
  -10.0486  -27.0866   12.1887 H   0  0  0  0  0  0  0  0  0  0  0  0
  -11.5366  -24.2743   11.5067 H   0  0  0  0  0  0  0  0  0  0  0  0
  -11.6921  -25.2822   12.9834 H   0  0  0  0  0  0  0  0  0  0  0  0
  -11.0905  -23.6048   13.1102 H   0  0  0  0  0  0  0  0  0  0  0  0
   -5.8358  -20.3479   11.4611 H   0  0  0  0  0  0  0  0  0  0  0  0
   -4.4669  -21.0316    8.5591 H   0  0  0  0  0  0  0  0  0  0  0  0
   -3.7845  -19.7274    9.3425 H   0  0  0  0  0  0  0  0  0  0  0  0
   -5.5215  -19.7175    9.2866 H   0  0  0  0  0  0  0  0  0  0  0  0
   -4.4293  -19.2011   12.6201 H   0  0  0  0  0  0  0  0  0  0  0  0
   -3.9221  -20.7267   13.2967 H   0  0  0  0  0  0  0  0  0  0  0  0
   -1.7637  -20.2732   13.0267 H   0  0  0  0  0  0  0  0  0  0  0  0
    0.1599  -19.4893   12.6904 H   0  0  0  0  0  0  0  0  0  0  0  0
    0.1481  -20.3336   11.1684 H   0  0  0  0  0  0  0  0  0  0  0  0
    4.0132  -17.5918   10.2858 H   0  0  0  0  0  0  0  0  0  0  0  0
    2.0880  -15.8869    9.2990 H   0  0  0  0  0  0  0  0  0  0  0  0
   -0.1197  -16.8311   10.2146 H   0  0  0  0  0  0  0  0  0  0  0  0
  1  2  1  0
  2  3  1  0
  3  4  1  0
  4  5  2  0
  4  6  1  0
  6  7  1  0
  7  8  2  0
  8  9  1  0
  9 10  1  0
  9 11  1  0
  3 12  1  0
 12 13  1  0
 12 14  1  0
 14 15  1  0
 15 16  1  0
 16 17  2  0
 16 18  1  0
 18 19  1  0
 19 20  2  0
 20 21  1  0
 21 22  2  0
 22 23  1  0
 11  6  2  0
 23 19  1  0
  1 24  1  0
  1 25  1  0
  1 26  1  0
  2 27  1  0
  2 28  1  0
  7 29  1  0
  8 30  1  0
 10 31  1  0
 10 32  1  0
 10 33  1  0
 12 34  1  0
 13 35  1  0
 13 36  1  0
 13 37  1  0
 14 38  1  0
 14 39  1  0
 15 40  1  0
 18 41  1  0
 18 42  1  0
 21 43  1  0
 22 44  1  0
 23 45  1  0
M  END
>  <Energy>  (221) 
941.05515204324729

>  <compound_id>  (221) 
18008

>  <target_id>  (221) 
1

>  <reference_id>  (221) 
112

>  <inspiration_ids>  (221) 
[112, 63]

>  <energy_score>  (221) 
849.5795253726835

>  <distance_score>  (221) 
12.729637989043722

>  <path>  (221) 
/opt/xchem-fragalysis-2/maxwin/BulkDock/SCRATCH/511024/C18008-P112/C18008-P112.minimised.mol

>  <scratch_subdir>  (221) 
/opt/xchem-fragalysis-2/maxwin/BulkDock/SCRATCH/511024/C18008-P112

>  <fragmenstein_runtime>  (221) 
22.0751953125

>  <fragmenstein_outcome>  (221) 
too moved

>  <fragmenstein_mode>  (221) 
expansion

>  <fragmenstein_error>  (221) 


$$$$
C18008-P63
     RDKit          3D

 45 46  0  0  0  0  0  0  0  0999 V2000
   -1.2264  -17.2062    9.3716 C   0  0  0  0  0  0  0  0  0  0  0  0
    0.0641  -16.7630   10.6629 C   0  0  0  0  0  0  0  0  0  0  0  0
   -0.1643  -17.8163   11.4051 N   0  0  0  0  0  0  0  0  0  0  0  0
    0.4675  -19.1503   11.4160 C   0  0  0  0  0  0  0  0  0  0  0  0
    1.4288  -19.5647   10.8488 O   0  0  0  0  0  0  0  0  0  0  0  0
   -0.2854  -20.1119   12.3004 C   0  0  0  0  0  0  0  0  0  0  0  0
   -0.2132  -21.5401   12.2379 C   0  0  0  0  0  0  0  0  0  0  0  0
   -0.9969  -22.0152   13.2618 C   0  0  0  0  0  0  0  0  0  0  0  0
   -1.4445  -20.9083   13.9136 N   0  0  0  0  0  0  0  0  0  0  0  0
   -1.9721  -20.8935   15.2547 C   0  0  0  0  0  0  0  0  0  0  0  0
   -1.0961  -19.7439   13.3191 N   0  0  0  0  0  0  0  0  0  0  0  0
    0.5082  -16.1239   10.5956 C   0  0  0  0  0  0  0  0  0  0  0  0
    1.8065  -16.2046    9.3254 C   0  0  0  0  0  0  0  0  0  0  0  0
    0.1768  -14.4233   11.4890 C   0  0  0  0  0  0  0  0  0  0  0  0
    1.1255  -12.9822   11.2122 N   0  0  0  0  0  0  0  0  0  0  0  0
    0.8645  -11.5526   11.5656 C   0  0  0  0  0  0  0  0  0  0  0  0
   -0.0918  -11.0490   12.0498 O   0  0  0  0  0  0  0  0  0  0  0  0
    2.3062  -10.4914   11.0037 C   0  0  0  0  0  0  0  0  0  0  0  0
    3.2793   -8.9558   11.5419 C   0  0  0  0  0  0  0  0  0  0  0  0
    3.0616   -7.6105   11.4319 N   0  0  0  0  0  0  0  0  0  0  0  0
    3.9663   -6.9264   12.1326 C   0  0  0  0  0  0  0  0  0  0  0  0
    4.5329   -7.7523   13.2188 C   0  0  0  0  0  0  0  0  0  0  0  0
    4.0771   -8.9846   13.1123 N   0  0  0  0  0  0  0  0  0  0  0  0
   -0.7684  -17.2456    8.3756 H   0  0  0  0  0  0  0  0  0  0  0  0
   -2.0514  -16.4824    9.3964 H   0  0  0  0  0  0  0  0  0  0  0  0
   -1.6462  -18.1944    9.6045 H   0  0  0  0  0  0  0  0  0  0  0  0
    0.5119  -17.6700    9.8785 H   0  0  0  0  0  0  0  0  0  0  0  0
   -1.0702  -16.3821   11.0715 H   0  0  0  0  0  0  0  0  0  0  0  0
    0.3536  -22.1243   11.5270 H   0  0  0  0  0  0  0  0  0  0  0  0
   -1.2265  -23.0156   13.6002 H   0  0  0  0  0  0  0  0  0  0  0  0
   -1.1446  -21.0854   15.9435 H   0  0  0  0  0  0  0  0  0  0  0  0
   -2.3936  -19.9084   15.4633 H   0  0  0  0  0  0  0  0  0  0  0  0
   -2.7235  -21.6768   15.3523 H   0  0  0  0  0  0  0  0  0  0  0  0
    1.4537  -16.1273   11.3520 H   0  0  0  0  0  0  0  0  0  0  0  0
    2.4210  -17.0973    9.5035 H   0  0  0  0  0  0  0  0  0  0  0  0
    2.4693  -15.3421    9.3744 H   0  0  0  0  0  0  0  0  0  0  0  0
    1.3476  -16.2664    8.3345 H   0  0  0  0  0  0  0  0  0  0  0  0
    0.2868  -14.5967   12.5589 H   0  0  0  0  0  0  0  0  0  0  0  0
   -0.8474  -14.1602   11.2524 H   0  0  0  0  0  0  0  0  0  0  0  0
    2.0206  -13.0485   10.7356 H   0  0  0  0  0  0  0  0  0  0  0  0
    3.0282  -11.0949   10.4468 H   0  0  0  0  0  0  0  0  0  0  0  0
    1.6434   -9.9489   10.3375 H   0  0  0  0  0  0  0  0  0  0  0  0
    4.1272   -5.8787   11.8914 H   0  0  0  0  0  0  0  0  0  0  0  0
    5.5078   -7.6549   13.6829 H   0  0  0  0  0  0  0  0  0  0  0  0
    4.1447   -9.8937   13.5584 H   0  0  0  0  0  0  0  0  0  0  0  0
  1  2  1  0
  2  3  1  0
  3  4  1  0
  4  5  2  0
  4  6  1  0
  6  7  1  0
  7  8  2  0
  8  9  1  0
  9 10  1  0
  9 11  1  0
  3 12  1  0
 12 13  1  0
 12 14  1  0
 14 15  1  0
 15 16  1  0
 16 17  2  0
 16 18  1  0
 18 19  1  0
 19 20  2  0
 20 21  1  0
 21 22  2  0
 22 23  1  0
 11  6  2  0
 23 19  1  0
  1 24  1  0
  1 25  1  0
  1 26  1  0
  2 27  1  0
  2 28  1  0
  7 29  1  0
  8 30  1  0
 10 31  1  0
 10 32  1  0
 10 33  1  0
 12 34  1  0
 13 35  1  0
 13 36  1  0
 13 37  1  0
 14 38  1  0
 14 39  1  0
 15 40  1  0
 18 41  1  0
 18 42  1  0
 21 43  1  0
 22 44  1  0
 23 45  1  0
M  END
>  <Energy>  (222) 
1104.9339244984376

>  <compound_id>  (222) 
18008

>  <target_id>  (222) 
1

>  <reference_id>  (222) 
63

>  <inspiration_ids>  (222) 
[112, 63]

>  <energy_score>  (222) 
1013.4582978278784

>  <distance_score>  (222) 
11.599630060692935

>  <path>  (222) 
/opt/xchem-fragalysis-2/maxwin/BulkDock/SCRATCH/511024/C18008-P63/C18008-P63.minimised.mol

>  <scratch_subdir>  (222) 
/opt/xchem-fragalysis-2/maxwin/BulkDock/SCRATCH/511024/C18008-P63

>  <fragmenstein_runtime>  (222) 
36.81674408912659

>  <fragmenstein_outcome>  (222) 
too moved

>  <fragmenstein_mode>  (222) 
expansion

>  <fragmenstein_error>  (222) 


$$$$
C18009-P112
     RDKit          3D

 44 45  0  0  0  0  0  0  0  0999 V2000
   -2.0920   -9.3955   17.1806 C   0  0  0  0  0  0  0  0  0  0  0  0
   -1.1338   -9.6660   15.7149 O   0  0  0  0  0  0  0  0  0  0  0  0
   -1.4551   -9.8111   14.2127 C   0  0  0  0  0  0  0  0  0  0  0  0
   -0.5449  -10.7969   12.7076 C   0  0  0  0  0  0  0  0  0  0  0  0
    0.7807  -12.0061   12.1778 N   0  0  0  0  0  0  0  0  0  0  0  0
    2.1336  -10.7321   13.1996 C   0  0  0  0  0  0  0  0  0  0  0  0
    3.9163  -10.0501   14.3978 C   0  0  0  0  0  0  0  0  0  0  0  0
    5.2626   -8.6359   14.5327 N   0  0  0  0  0  0  0  0  0  0  0  0
    5.9011   -7.5479   16.4390 C   0  0  0  0  0  0  0  0  0  0  0  0
    5.1000   -9.0954   17.6323 C   0  0  0  0  0  0  0  0  0  0  0  0
    3.8689  -10.1264   16.4009 N   0  0  0  0  0  0  0  0  0  0  0  0
    0.3038  -13.3964   12.5103 C   0  0  0  0  0  0  0  0  0  0  0  0
    0.5572  -13.8784   13.4589 O   0  0  0  0  0  0  0  0  0  0  0  0
   -0.4899  -13.9939   11.4246 N   0  0  0  0  0  0  0  0  0  0  0  0
   -1.1293  -15.5491   11.2326 C   0  0  0  0  0  0  0  0  0  0  0  0
   -2.6964  -15.6584   10.8818 C   0  0  0  0  0  0  0  0  0  0  0  0
   -0.5184  -16.8257   10.5553 C   0  0  0  0  0  0  0  0  0  0  0  0
    0.7774  -17.3742   10.5548 C   0  0  0  0  0  0  0  0  0  0  0  0
    0.6349  -18.6948   10.1746 C   0  0  0  0  0  0  0  0  0  0  0  0
   -0.6846  -18.8752    9.9264 N   0  0  0  0  0  0  0  0  0  0  0  0
   -1.3515  -20.0923    9.5380 C   0  0  0  0  0  0  0  0  0  0  0  0
   -1.3866  -17.7493   10.0604 N   0  0  0  0  0  0  0  0  0  0  0  0
   -1.5414   -8.6374   17.7297 H   0  0  0  0  0  0  0  0  0  0  0  0
   -2.0226  -10.3099   17.7921 H   0  0  0  0  0  0  0  0  0  0  0  0
   -3.1196   -9.2034   16.8792 H   0  0  0  0  0  0  0  0  0  0  0  0
   -1.3944   -8.7790   13.9038 H   0  0  0  0  0  0  0  0  0  0  0  0
   -2.4783   -9.8730   14.5103 H   0  0  0  0  0  0  0  0  0  0  0  0
   -1.2769  -11.0076   11.9658 H   0  0  0  0  0  0  0  0  0  0  0  0
   -0.7811  -11.6567   13.3316 H   0  0  0  0  0  0  0  0  0  0  0  0
    2.9335  -10.4102   12.3946 H   0  0  0  0  0  0  0  0  0  0  0  0
    1.8803  -10.4079   12.0595 H   0  0  0  0  0  0  0  0  0  0  0  0
    5.6486   -6.4591   16.5364 H   0  0  0  0  0  0  0  0  0  0  0  0
    4.5465   -8.9388   18.5145 H   0  0  0  0  0  0  0  0  0  0  0  0
    3.2981  -10.8356   16.8398 H   0  0  0  0  0  0  0  0  0  0  0  0
   -0.6342  -13.3175   10.7333 H   0  0  0  0  0  0  0  0  0  0  0  0
   -0.8779  -15.9434   12.1979 H   0  0  0  0  0  0  0  0  0  0  0  0
   -3.3779  -14.9936   11.4029 H   0  0  0  0  0  0  0  0  0  0  0  0
   -3.0851  -16.6473   11.1574 H   0  0  0  0  0  0  0  0  0  0  0  0
   -2.8820  -15.5314    9.8124 H   0  0  0  0  0  0  0  0  0  0  0  0
    1.6944  -16.9111   10.8805 H   0  0  0  0  0  0  0  0  0  0  0  0
    1.3570  -19.4943   10.0925 H   0  0  0  0  0  0  0  0  0  0  0  0
   -0.6111  -20.8841    9.3996 H   0  0  0  0  0  0  0  0  0  0  0  0
   -2.0511  -20.3690   10.3311 H   0  0  0  0  0  0  0  0  0  0  0  0
   -1.8846  -19.9129    8.6007 H   0  0  0  0  0  0  0  0  0  0  0  0
  1  2  1  0
  2  3  1  0
  3  4  1  0
  4  5  1  0
  5  6  1  0
  6  7  1  0
  7  8  2  0
  8  9  1  0
  9 10  2  0
 10 11  1  0
  5 12  1  0
 12 13  2  0
 12 14  1  0
 14 15  1  0
 15 16  1  0
 15 17  1  0
 17 18  1  0
 18 19  2  0
 19 20  1  0
 20 21  1  0
 20 22  1  0
 11  7  1  0
 22 17  2  0
  1 23  1  0
  1 24  1  0
  1 25  1  0
  3 26  1  0
  3 27  1  0
  4 28  1  0
  4 29  1  0
  6 30  1  0
  6 31  1  0
  9 32  1  0
 10 33  1  0
 11 34  1  0
 14 35  1  0
 15 36  1  0
 16 37  1  0
 16 38  1  0
 16 39  1  0
 18 40  1  0
 19 41  1  0
 21 42  1  0
 21 43  1  0
 21 44  1  0
M  END
>  <Energy>  (223) 
1766.618610544755

>  <compound_id>  (223) 
18009

>  <target_id>  (223) 
1

>  <reference_id>  (223) 
112

>  <inspiration_ids>  (223) 
[112, 63]

>  <energy_score>  (223) 
1772.9960605828253

>  <distance_score>  (223) 
12.381636374481598

>  <path>  (223) 
/opt/xchem-fragalysis-2/maxwin/BulkDock/SCRATCH/511024/C18009-P112/C18009-P112.minimised.mol

>  <scratch_subdir>  (223) 
/opt/xchem-fragalysis-2/maxwin/BulkDock/SCRATCH/511024/C18009-P112

>  <fragmenstein_runtime>  (223) 
20.768251419067383

>  <fragmenstein_outcome>  (223) 
too moved

>  <fragmenstein_mode>  (223) 
expansion

>  <fragmenstein_error>  (223) 


$$$$
C18009-P63
     RDKit          3D

 44 45  0  0  0  0  0  0  0  0999 V2000
   -2.0055   -9.5431   17.2635 C   0  0  0  0  0  0  0  0  0  0  0  0
   -1.0149   -9.6823   15.7375 O   0  0  0  0  0  0  0  0  0  0  0  0
   -1.4490   -9.8830   14.1114 C   0  0  0  0  0  0  0  0  0  0  0  0
   -0.8253  -11.1269   12.6492 C   0  0  0  0  0  0  0  0  0  0  0  0
    0.1510  -12.0961   11.5169 N   0  0  0  0  0  0  0  0  0  0  0  0
    1.1647  -10.9470   11.7729 C   0  0  0  0  0  0  0  0  0  0  0  0
    2.8743  -10.3015   11.5075 C   0  0  0  0  0  0  0  0  0  0  0  0
    3.5410  -10.6036   12.6774 N   0  0  0  0  0  0  0  0  0  0  0  0
    4.3315   -9.9833   13.5751 C   0  0  0  0  0  0  0  0  0  0  0  0
    4.2002   -8.6315   13.2497 C   0  0  0  0  0  0  0  0  0  0  0  0
    3.4027   -8.6352   11.6427 N   0  0  0  0  0  0  0  0  0  0  0  0
    0.1798  -13.7507   12.0032 C   0  0  0  0  0  0  0  0  0  0  0  0
    0.9683  -14.2185   12.7065 O   0  0  0  0  0  0  0  0  0  0  0  0
   -0.9276  -14.4544   11.2351 N   0  0  0  0  0  0  0  0  0  0  0  0
   -1.2800  -16.0855   11.0565 C   0  0  0  0  0  0  0  0  0  0  0  0
    0.0332  -16.7861   10.6427 C   0  0  0  0  0  0  0  0  0  0  0  0
   -2.1383  -17.1677   11.8383 C   0  0  0  0  0  0  0  0  0  0  0  0
   -3.4596  -17.1262   12.3841 C   0  0  0  0  0  0  0  0  0  0  0  0
   -3.5537  -18.2393   13.1891 C   0  0  0  0  0  0  0  0  0  0  0  0
   -2.5181  -19.0352   12.8245 N   0  0  0  0  0  0  0  0  0  0  0  0
   -2.2462  -20.3937   13.2203 C   0  0  0  0  0  0  0  0  0  0  0  0
   -1.6380  -18.4077   12.0333 N   0  0  0  0  0  0  0  0  0  0  0  0
   -3.0459   -9.3531   16.9801 H   0  0  0  0  0  0  0  0  0  0  0  0
   -1.4740   -8.7933   17.8412 H   0  0  0  0  0  0  0  0  0  0  0  0
   -1.9201  -10.5108   17.7782 H   0  0  0  0  0  0  0  0  0  0  0  0
   -1.3325   -8.8530   13.8184 H   0  0  0  0  0  0  0  0  0  0  0  0
   -2.4664   -9.8701   14.4778 H   0  0  0  0  0  0  0  0  0  0  0  0
   -0.7405  -11.9819   13.3287 H   0  0  0  0  0  0  0  0  0  0  0  0
   -1.5513  -10.8547   11.9303 H   0  0  0  0  0  0  0  0  0  0  0  0
    1.7752  -11.6672   11.1983 H   0  0  0  0  0  0  0  0  0  0  0  0
    0.8067  -10.2123   11.0498 H   0  0  0  0  0  0  0  0  0  0  0  0
    4.9057  -10.6030   14.2420 H   0  0  0  0  0  0  0  0  0  0  0  0
    4.6257   -7.7062   13.4560 H   0  0  0  0  0  0  0  0  0  0  0  0
    2.6503   -7.9809   11.6751 H   0  0  0  0  0  0  0  0  0  0  0  0
   -1.3820  -13.8021   10.6585 H   0  0  0  0  0  0  0  0  0  0  0  0
   -1.8932  -16.0068   10.1480 H   0  0  0  0  0  0  0  0  0  0  0  0
    0.6885  -16.1514   10.0463 H   0  0  0  0  0  0  0  0  0  0  0  0
    0.6132  -17.0773   11.5233 H   0  0  0  0  0  0  0  0  0  0  0  0
   -0.1581  -17.6873   10.0482 H   0  0  0  0  0  0  0  0  0  0  0  0
   -4.1537  -16.2992   12.3501 H   0  0  0  0  0  0  0  0  0  0  0  0
   -4.2968  -18.5292   13.9030 H   0  0  0  0  0  0  0  0  0  0  0  0
   -2.7287  -20.5974   14.1754 H   0  0  0  0  0  0  0  0  0  0  0  0
   -2.6193  -21.0539   12.4352 H   0  0  0  0  0  0  0  0  0  0  0  0
   -1.1659  -20.5204   13.3348 H   0  0  0  0  0  0  0  0  0  0  0  0
  1  2  1  0
  2  3  1  0
  3  4  1  0
  4  5  1  0
  5  6  1  0
  6  7  1  0
  7  8  2  0
  8  9  1  0
  9 10  2  0
 10 11  1  0
  5 12  1  0
 12 13  2  0
 12 14  1  0
 14 15  1  0
 15 16  1  0
 15 17  1  0
 17 18  1  0
 18 19  2  0
 19 20  1  0
 20 21  1  0
 20 22  1  0
 11  7  1  0
 22 17  2  0
  1 23  1  0
  1 24  1  0
  1 25  1  0
  3 26  1  0
  3 27  1  0
  4 28  1  0
  4 29  1  0
  6 30  1  0
  6 31  1  0
  9 32  1  0
 10 33  1  0
 11 34  1  0
 14 35  1  0
 15 36  1  0
 16 37  1  0
 16 38  1  0
 16 39  1  0
 18 40  1  0
 19 41  1  0
 21 42  1  0
 21 43  1  0
 21 44  1  0
M  END
>  <Energy>  (224) 
593.41383283623873

>  <compound_id>  (224) 
18009

>  <target_id>  (224) 
1

>  <reference_id>  (224) 
63

>  <inspiration_ids>  (224) 
[112, 63]

>  <energy_score>  (224) 
599.7912828742907

>  <distance_score>  (224) 
12.130256060768295

>  <path>  (224) 
/opt/xchem-fragalysis-2/maxwin/BulkDock/SCRATCH/511024/C18009-P63/C18009-P63.minimised.mol

>  <scratch_subdir>  (224) 
/opt/xchem-fragalysis-2/maxwin/BulkDock/SCRATCH/511024/C18009-P63

>  <fragmenstein_runtime>  (224) 
30.403364658355713

>  <fragmenstein_outcome>  (224) 
too moved

>  <fragmenstein_mode>  (224) 
expansion

>  <fragmenstein_error>  (224) 


$$$$
C61174-P112
     RDKit          3D

 47 47  0  0  0  0  0  0  0  0999 V2000
   -5.1879  -11.5586    6.3677 C   0  0  0  0  0  0  0  0  0  0  0  0
   -5.8430  -12.5743    6.4342 C   0  0  0  0  0  0  0  0  0  0  0  0
   -6.5147  -13.9431    6.6681 C   0  0  0  0  0  0  0  0  0  0  0  0
   -7.6390  -14.6149    5.8004 N   0  0  0  0  0  0  0  0  0  0  0  0
   -7.5112  -16.0470    5.8553 C   0  0  0  0  0  0  0  0  0  0  0  0
   -8.0041  -16.8484    6.6053 O   0  0  0  0  0  0  0  0  0  0  0  0
   -6.6864  -16.6549    4.6933 C   0  0  0  0  0  0  0  0  0  0  0  0
   -5.5756  -16.2575    4.4771 O   0  0  0  0  0  0  0  0  0  0  0  0
   -7.4669  -17.6630    4.0249 N   0  0  0  0  0  0  0  0  0  0  0  0
   -7.1868  -18.4455    2.7964 C   0  0  0  0  0  0  0  0  0  0  0  0
   -7.2380  -19.0387    4.6862 C   0  0  0  0  0  0  0  0  0  0  0  0
   -8.5377  -19.8544    5.0861 C   0  0  0  0  0  0  0  0  0  0  0  0
   -9.8613  -19.2686    4.6009 C   0  0  0  0  0  0  0  0  0  0  0  0
   -8.3625  -21.3403    4.6887 C   0  0  0  0  0  0  0  0  0  0  0  0
   -9.5992  -22.2173    4.8412 C   0  0  0  0  0  0  0  0  0  0  0  0
   -8.5371  -13.6579    6.6061 C   0  0  0  0  0  0  0  0  0  0  0  0
   -8.9665  -14.1438    8.0264 C   0  0  0  0  0  0  0  0  0  0  0  0
  -10.4656  -14.0992    8.3209 C   0  0  0  0  0  0  0  0  0  0  0  0
  -11.1830  -14.9784    7.4816 O   0  0  0  0  0  0  0  0  0  0  0  0
  -10.7949  -14.9036    6.1156 C   0  0  0  0  0  0  0  0  0  0  0  0
   -9.8863  -13.7045    5.7827 C   0  0  0  0  0  0  0  0  0  0  0  0
   -4.6103  -10.6657    6.3014 H   0  0  0  0  0  0  0  0  0  0  0  0
   -5.6672  -14.5942    6.4003 H   0  0  0  0  0  0  0  0  0  0  0  0
   -6.5842  -14.2174    7.7257 H   0  0  0  0  0  0  0  0  0  0  0  0
   -6.1200  -18.6800    2.6617 H   0  0  0  0  0  0  0  0  0  0  0  0
   -7.8732  -19.2703    2.5678 H   0  0  0  0  0  0  0  0  0  0  0  0
   -7.3732  -17.7206    1.9905 H   0  0  0  0  0  0  0  0  0  0  0  0
   -6.4180  -19.6825    4.3134 H   0  0  0  0  0  0  0  0  0  0  0  0
   -6.7949  -18.7874    5.6629 H   0  0  0  0  0  0  0  0  0  0  0  0
   -8.6095  -19.7952    6.1746 H   0  0  0  0  0  0  0  0  0  0  0  0
   -9.9526  -18.2151    4.8830 H   0  0  0  0  0  0  0  0  0  0  0  0
   -9.9617  -19.3410    3.5139 H   0  0  0  0  0  0  0  0  0  0  0  0
  -10.7143  -19.7875    5.0488 H   0  0  0  0  0  0  0  0  0  0  0  0
   -7.5368  -21.7723    5.2659 H   0  0  0  0  0  0  0  0  0  0  0  0
   -8.0514  -21.3970    3.6381 H   0  0  0  0  0  0  0  0  0  0  0  0
  -10.0617  -22.1134    5.8256 H   0  0  0  0  0  0  0  0  0  0  0  0
   -9.3301  -23.2693    4.7010 H   0  0  0  0  0  0  0  0  0  0  0  0
  -10.3507  -21.9704    4.0845 H   0  0  0  0  0  0  0  0  0  0  0  0
   -8.2543  -12.5971    6.5603 H   0  0  0  0  0  0  0  0  0  0  0  0
   -8.6215  -15.1682    8.1493 H   0  0  0  0  0  0  0  0  0  0  0  0
   -8.4843  -13.5286    8.7821 H   0  0  0  0  0  0  0  0  0  0  0  0
  -10.8595  -13.0817    8.2094 H   0  0  0  0  0  0  0  0  0  0  0  0
  -10.6653  -14.3848    9.3569 H   0  0  0  0  0  0  0  0  0  0  0  0
  -11.7119  -14.8399    5.5201 H   0  0  0  0  0  0  0  0  0  0  0  0
  -10.3150  -15.8477    5.8460 H   0  0  0  0  0  0  0  0  0  0  0  0
  -10.4426  -12.7808    5.9927 H   0  0  0  0  0  0  0  0  0  0  0  0
   -9.6747  -13.6933    4.7061 H   0  0  0  0  0  0  0  0  0  0  0  0
  1  2  3  0
  2  3  1  0
  3  4  1  0
  4  5  1  0
  5  6  2  0
  5  7  1  0
  7  8  2  0
  7  9  1  0
  9 10  1  0
  9 11  1  0
 11 12  1  0
 12 13  1  0
 12 14  1  0
 14 15  1  0
  4 16  1  0
 16 17  1  0
 17 18  1  0
 18 19  1  0
 19 20  1  0
 20 21  1  0
 21 16  1  0
  1 22  1  0
  3 23  1  0
  3 24  1  0
 10 25  1  0
 10 26  1  0
 10 27  1  0
 11 28  1  0
 11 29  1  0
 12 30  1  0
 13 31  1  0
 13 32  1  0
 13 33  1  0
 14 34  1  0
 14 35  1  0
 15 36  1  0
 15 37  1  0
 15 38  1  0
 16 39  1  0
 17 40  1  0
 17 41  1  0
 18 42  1  0
 18 43  1  0
 20 44  1  0
 20 45  1  0
 21 46  1  0
 21 47  1  0
M  END
>  <Energy>  (225) 
216.98293212198357

>  <compound_id>  (225) 
61174

>  <target_id>  (225) 
1

>  <reference_id>  (225) 
112

>  <inspiration_ids>  (225) 
[112, 111]

>  <energy_score>  (225) 
118.09176465543254

>  <distance_score>  (225) 
15.198443957702722

>  <path>  (225) 
/opt/xchem-fragalysis-2/maxwin/BulkDock/SCRATCH/511024/C61174-P112/C61174-P112.minimised.mol

>  <scratch_subdir>  (225) 
/opt/xchem-fragalysis-2/maxwin/BulkDock/SCRATCH/511024/C61174-P112

>  <fragmenstein_runtime>  (225) 
30.980342149734497

>  <fragmenstein_outcome>  (225) 
too moved

>  <fragmenstein_mode>  (225) 
expansion

>  <fragmenstein_error>  (225) 


$$$$
C61174-P111
     RDKit          3D

 47 47  0  0  0  0  0  0  0  0999 V2000
   -6.0254   -9.5031   14.3002 C   0  0  0  0  0  0  0  0  0  0  0  0
   -7.0546  -10.1254   14.1583 C   0  0  0  0  0  0  0  0  0  0  0  0
   -8.4140  -10.7366   13.7270 C   0  0  0  0  0  0  0  0  0  0  0  0
   -9.0420  -12.0249   14.4630 N   0  0  0  0  0  0  0  0  0  0  0  0
   -9.4018  -11.6970   15.8033 C   0  0  0  0  0  0  0  0  0  0  0  0
  -10.4401  -11.2845   16.2576 O   0  0  0  0  0  0  0  0  0  0  0  0
   -8.3807  -12.0012   16.9094 C   0  0  0  0  0  0  0  0  0  0  0  0
   -8.1771  -11.1443   17.7270 O   0  0  0  0  0  0  0  0  0  0  0  0
   -7.8903  -13.3556   16.8281 N   0  0  0  0  0  0  0  0  0  0  0  0
   -6.8961  -14.0760   17.6676 C   0  0  0  0  0  0  0  0  0  0  0  0
   -8.8662  -14.3254   17.5465 C   0  0  0  0  0  0  0  0  0  0  0  0
   -9.0047  -15.7943   16.9097 C   0  0  0  0  0  0  0  0  0  0  0  0
   -9.7864  -15.8413   15.5904 C   0  0  0  0  0  0  0  0  0  0  0  0
   -9.5777  -16.7934   17.9318 C   0  0  0  0  0  0  0  0  0  0  0  0
  -10.9979  -16.4892   18.3899 C   0  0  0  0  0  0  0  0  0  0  0  0
   -9.9002  -12.0728   13.1686 C   0  0  0  0  0  0  0  0  0  0  0  0
  -11.2423  -12.7896   13.6644 C   0  0  0  0  0  0  0  0  0  0  0  0
  -12.1938  -13.2625   12.5709 C   0  0  0  0  0  0  0  0  0  0  0  0
  -11.5141  -14.0436   11.6014 O   0  0  0  0  0  0  0  0  0  0  0  0
  -10.4421  -13.2967   11.0387 C   0  0  0  0  0  0  0  0  0  0  0  0
   -9.3654  -13.0477   12.0960 C   0  0  0  0  0  0  0  0  0  0  0  0
   -5.1105   -8.9636   14.3936 H   0  0  0  0  0  0  0  0  0  0  0  0
   -9.1270   -9.9073   13.8698 H   0  0  0  0  0  0  0  0  0  0  0  0
   -8.2099  -10.9017   12.6595 H   0  0  0  0  0  0  0  0  0  0  0  0
   -6.6449  -15.0983   17.3865 H   0  0  0  0  0  0  0  0  0  0  0  0
   -5.9734  -13.5099   17.4865 H   0  0  0  0  0  0  0  0  0  0  0  0
   -6.9915  -13.9180   18.7534 H   0  0  0  0  0  0  0  0  0  0  0  0
   -8.8308  -14.3184   18.6498 H   0  0  0  0  0  0  0  0  0  0  0  0
   -9.8571  -13.8751   17.3761 H   0  0  0  0  0  0  0  0  0  0  0  0
   -8.0161  -16.1730   16.6617 H   0  0  0  0  0  0  0  0  0  0  0  0
   -9.8792  -16.8673   15.2240 H   0  0  0  0  0  0  0  0  0  0  0  0
  -10.7935  -15.4327   15.7095 H   0  0  0  0  0  0  0  0  0  0  0  0
   -9.2668  -15.2577   14.8245 H   0  0  0  0  0  0  0  0  0  0  0  0
   -8.9247  -16.8047   18.8138 H   0  0  0  0  0  0  0  0  0  0  0  0
   -9.5387  -17.8026   17.5200 H   0  0  0  0  0  0  0  0  0  0  0  0
  -11.3123  -17.2230   19.1394 H   0  0  0  0  0  0  0  0  0  0  0  0
  -11.7082  -16.5399   17.5594 H   0  0  0  0  0  0  0  0  0  0  0  0
  -11.0705  -15.4979   18.8468 H   0  0  0  0  0  0  0  0  0  0  0  0
  -10.2867  -11.1209   12.7665 H   0  0  0  0  0  0  0  0  0  0  0  0
  -10.9637  -13.6648   14.2595 H   0  0  0  0  0  0  0  0  0  0  0  0
  -11.7930  -12.1165   14.3306 H   0  0  0  0  0  0  0  0  0  0  0  0
  -12.9899  -13.8752   13.0058 H   0  0  0  0  0  0  0  0  0  0  0  0
  -12.6728  -12.4078   12.0785 H   0  0  0  0  0  0  0  0  0  0  0  0
  -10.0419  -13.8489   10.1902 H   0  0  0  0  0  0  0  0  0  0  0  0
  -10.8181  -12.3516   10.6256 H   0  0  0  0  0  0  0  0  0  0  0  0
   -8.4763  -12.6523   11.6137 H   0  0  0  0  0  0  0  0  0  0  0  0
   -9.0766  -13.9908   12.5742 H   0  0  0  0  0  0  0  0  0  0  0  0
  1  2  3  0
  2  3  1  0
  3  4  1  0
  4  5  1  0
  5  6  2  0
  5  7  1  0
  7  8  2  0
  7  9  1  0
  9 10  1  0
  9 11  1  0
 11 12  1  0
 12 13  1  0
 12 14  1  0
 14 15  1  0
  4 16  1  0
 16 17  1  0
 17 18  1  0
 18 19  1  0
 19 20  1  0
 20 21  1  0
 21 16  1  0
  1 22  1  0
  3 23  1  0
  3 24  1  0
 10 25  1  0
 10 26  1  0
 10 27  1  0
 11 28  1  0
 11 29  1  0
 12 30  1  0
 13 31  1  0
 13 32  1  0
 13 33  1  0
 14 34  1  0
 14 35  1  0
 15 36  1  0
 15 37  1  0
 15 38  1  0
 16 39  1  0
 17 40  1  0
 17 41  1  0
 18 42  1  0
 18 43  1  0
 20 44  1  0
 20 45  1  0
 21 46  1  0
 21 47  1  0
M  END
>  <Energy>  (226) 
210.81047145402701

>  <compound_id>  (226) 
61174

>  <target_id>  (226) 
1

>  <reference_id>  (226) 
111

>  <inspiration_ids>  (226) 
[112, 111]

>  <energy_score>  (226) 
111.91930398747422

>  <distance_score>  (226) 
14.965523543981016

>  <path>  (226) 
/opt/xchem-fragalysis-2/maxwin/BulkDock/SCRATCH/511024/C61174-P111/C61174-P111.minimised.mol

>  <scratch_subdir>  (226) 
/opt/xchem-fragalysis-2/maxwin/BulkDock/SCRATCH/511024/C61174-P111

>  <fragmenstein_runtime>  (226) 
35.28381037712097

>  <fragmenstein_outcome>  (226) 
too moved

>  <fragmenstein_mode>  (226) 
expansion

>  <fragmenstein_error>  (226) 


$$$$
C61177-P112
     RDKit          3D

 44 44  0  0  0  0  0  0  0  0999 V2000
  -11.5998  -14.7610   11.6598 C   0  0  0  0  0  0  0  0  0  0  0  0
  -10.9106  -14.4860   12.6059 C   0  0  0  0  0  0  0  0  0  0  0  0
  -10.0775  -14.0075   13.7276 C   0  0  0  0  0  0  0  0  0  0  0  0
   -8.6785  -13.6543   13.2793 N   0  0  0  0  0  0  0  0  0  0  0  0
   -8.5814  -12.3992   12.1178 S   0  0  0  0  0  0  0  0  0  0  0  0
   -8.3474  -13.1259   10.8885 O   0  0  0  0  0  0  0  0  0  0  0  0
   -9.7324  -11.5395   12.2906 O   0  0  0  0  0  0  0  0  0  0  0  0
   -7.0819  -11.3823   12.5508 C   0  0  0  0  0  0  0  0  0  0  0  0
   -6.8756  -10.0222   11.7826 C   0  0  0  0  0  0  0  0  0  0  0  0
   -5.4708   -9.2587   12.0035 C   0  0  0  0  0  0  0  0  0  0  0  0
   -5.2948   -8.6196   13.3995 C   0  0  0  0  0  0  0  0  0  0  0  0
   -4.0272   -7.7554   13.5444 C   0  0  0  0  0  0  0  0  0  0  0  0
   -3.8103   -6.8133   12.3761 C   0  0  0  0  0  0  0  0  0  0  0  0
   -3.9035   -7.5199   11.1434 O   0  0  0  0  0  0  0  0  0  0  0  0
   -5.1820   -8.1497   10.9602 C   0  0  0  0  0  0  0  0  0  0  0  0
  -10.0449  -14.9948   14.9337 C   0  0  0  0  0  0  0  0  0  0  0  0
   -9.5066  -16.3551   14.5477 C   0  0  0  0  0  0  0  0  0  0  0  0
  -11.4524  -15.2067   15.5236 C   0  0  0  0  0  0  0  0  0  0  0  0
   -9.1646  -14.4137   16.0649 C   0  0  0  0  0  0  0  0  0  0  0  0
  -12.1930  -14.9914   10.8031 H   0  0  0  0  0  0  0  0  0  0  0  0
  -10.5252  -13.0791   14.1095 H   0  0  0  0  0  0  0  0  0  0  0  0
   -8.2260  -14.4678   12.8528 H   0  0  0  0  0  0  0  0  0  0  0  0
   -7.1531  -11.1796   13.6214 H   0  0  0  0  0  0  0  0  0  0  0  0
   -6.2488  -12.0333   12.3151 H   0  0  0  0  0  0  0  0  0  0  0  0
   -6.9747  -10.2329   10.7105 H   0  0  0  0  0  0  0  0  0  0  0  0
   -7.6938   -9.3399   12.0415 H   0  0  0  0  0  0  0  0  0  0  0  0
   -4.7041  -10.0133   11.8424 H   0  0  0  0  0  0  0  0  0  0  0  0
   -6.1645   -7.9787   13.5958 H   0  0  0  0  0  0  0  0  0  0  0  0
   -5.3065   -9.3935   14.1733 H   0  0  0  0  0  0  0  0  0  0  0  0
   -3.1615   -8.4109   13.6095 H   0  0  0  0  0  0  0  0  0  0  0  0
   -4.0822   -7.1849   14.4772 H   0  0  0  0  0  0  0  0  0  0  0  0
   -4.5502   -6.0046   12.3819 H   0  0  0  0  0  0  0  0  0  0  0  0
   -2.8188   -6.3537   12.4356 H   0  0  0  0  0  0  0  0  0  0  0  0
   -5.9667   -7.3835   10.9761 H   0  0  0  0  0  0  0  0  0  0  0  0
   -5.1801   -8.5892    9.9569 H   0  0  0  0  0  0  0  0  0  0  0  0
  -10.1573  -16.8426   13.8179 H   0  0  0  0  0  0  0  0  0  0  0  0
   -8.4946  -16.2903   14.1345 H   0  0  0  0  0  0  0  0  0  0  0  0
   -9.4660  -16.9755   15.4504 H   0  0  0  0  0  0  0  0  0  0  0  0
  -11.4434  -15.9388   16.3395 H   0  0  0  0  0  0  0  0  0  0  0  0
  -12.1697  -15.5476   14.7803 H   0  0  0  0  0  0  0  0  0  0  0  0
  -11.8443  -14.2678   15.9328 H   0  0  0  0  0  0  0  0  0  0  0  0
   -9.1974  -15.0477   16.9588 H   0  0  0  0  0  0  0  0  0  0  0  0
   -9.5059  -13.4140   16.3565 H   0  0  0  0  0  0  0  0  0  0  0  0
   -8.1158  -14.3357   15.7648 H   0  0  0  0  0  0  0  0  0  0  0  0
  1  2  3  0
  2  3  1  0
  3  4  1  0
  4  5  1  0
  5  6  2  0
  5  7  2  0
  5  8  1  0
  8  9  1  0
  9 10  1  0
 10 11  1  0
 11 12  1  0
 12 13  1  0
 13 14  1  0
 14 15  1  0
  3 16  1  0
 16 17  1  0
 16 18  1  0
 16 19  1  0
 15 10  1  0
  1 20  1  0
  3 21  1  0
  4 22  1  0
  8 23  1  0
  8 24  1  0
  9 25  1  0
  9 26  1  0
 10 27  1  0
 11 28  1  0
 11 29  1  0
 12 30  1  0
 12 31  1  0
 13 32  1  0
 13 33  1  0
 15 34  1  0
 15 35  1  0
 17 36  1  0
 17 37  1  0
 17 38  1  0
 18 39  1  0
 18 40  1  0
 18 41  1  0
 19 42  1  0
 19 43  1  0
 19 44  1  0
M  END
>  <Energy>  (227) 
-48.868095800775436

>  <compound_id>  (227) 
61177

>  <target_id>  (227) 
1

>  <reference_id>  (227) 
112

>  <inspiration_ids>  (227) 
[112, 111]

>  <energy_score>  (227) 
-54.413520709813724

>  <distance_score>  (227) 
14.54674410773977

>  <path>  (227) 
/opt/xchem-fragalysis-2/maxwin/BulkDock/SCRATCH/511024/C61177-P112/C61177-P112.minimised.mol

>  <scratch_subdir>  (227) 
/opt/xchem-fragalysis-2/maxwin/BulkDock/SCRATCH/511024/C61177-P112

>  <fragmenstein_runtime>  (227) 
81.91564059257507

>  <fragmenstein_outcome>  (227) 
too moved

>  <fragmenstein_mode>  (227) 
expansion

>  <fragmenstein_error>  (227) 


$$$$
C61177-P111
     RDKit          3D

 44 44  0  0  0  0  0  0  0  0999 V2000
   -8.6534  -25.3763   15.9988 C   0  0  0  0  0  0  0  0  0  0  0  0
   -7.6916  -24.4584   16.5649 C   0  0  0  0  0  0  0  0  0  0  0  0
   -6.4935  -22.9965   16.9451 C   0  0  0  0  0  0  0  0  0  0  0  0
   -5.6503  -21.3629   17.9216 N   0  0  0  0  0  0  0  0  0  0  0  0
   -3.5740  -20.5971   18.6254 S   0  0  0  0  0  0  0  0  0  0  0  0
   -2.8261  -21.7150   18.0746 O   0  0  0  0  0  0  0  0  0  0  0  0
   -3.9483  -20.6796   20.0391 O   0  0  0  0  0  0  0  0  0  0  0  0
   -2.0589  -18.6894   18.6800 C   0  0  0  0  0  0  0  0  0  0  0  0
   -0.3606  -17.6618   19.4746 C   0  0  0  0  0  0  0  0  0  0  0  0
    1.1131  -16.0463   19.1236 C   0  0  0  0  0  0  0  0  0  0  0  0
    1.9027  -14.2638   18.2748 C   0  0  0  0  0  0  0  0  0  0  0  0
    3.2838  -12.7088   18.0942 C   0  0  0  0  0  0  0  0  0  0  0  0
    4.4128  -12.9213   18.8534 C   0  0  0  0  0  0  0  0  0  0  0  0
    4.2082  -14.3812   18.3320 O   0  0  0  0  0  0  0  0  0  0  0  0
    2.8120  -15.4745   18.1215 C   0  0  0  0  0  0  0  0  0  0  0  0
   -7.8773  -22.6579   15.2251 C   0  0  0  0  0  0  0  0  0  0  0  0
   -9.2633  -23.6682   14.2203 C   0  0  0  0  0  0  0  0  0  0  0  0
   -7.5676  -21.9532   13.5488 C   0  0  0  0  0  0  0  0  0  0  0  0
   -9.4113  -22.0553   15.5833 C   0  0  0  0  0  0  0  0  0  0  0  0
   -9.2641  -26.1301   15.5344 H   0  0  0  0  0  0  0  0  0  0  0  0
   -5.4627  -22.7658   16.6994 H   0  0  0  0  0  0  0  0  0  0  0  0
   -5.9158  -21.6300   18.8761 H   0  0  0  0  0  0  0  0  0  0  0  0
   -2.8441  -17.9363   18.8253 H   0  0  0  0  0  0  0  0  0  0  0  0
   -1.7333  -18.8467   17.6518 H   0  0  0  0  0  0  0  0  0  0  0  0
   -0.9823  -17.0378   20.1566 H   0  0  0  0  0  0  0  0  0  0  0  0
    0.0378  -18.3855   20.1993 H   0  0  0  0  0  0  0  0  0  0  0  0
    1.1694  -15.8351   20.2564 H   0  0  0  0  0  0  0  0  0  0  0  0
    2.2533  -14.2661   19.3643 H   0  0  0  0  0  0  0  0  0  0  0  0
    0.9870  -13.8269   17.8608 H   0  0  0  0  0  0  0  0  0  0  0  0
    3.0827  -11.6813   18.4741 H   0  0  0  0  0  0  0  0  0  0  0  0
    3.6000  -12.1034   17.2006 H   0  0  0  0  0  0  0  0  0  0  0  0
    5.2860  -12.2977   18.6149 H   0  0  0  0  0  0  0  0  0  0  0  0
    4.3061  -12.6287   19.9259 H   0  0  0  0  0  0  0  0  0  0  0  0
    2.7209  -15.5832   17.0196 H   0  0  0  0  0  0  0  0  0  0  0  0
    3.5835  -16.0292   18.5455 H   0  0  0  0  0  0  0  0  0  0  0  0
   -9.0155  -24.3965   13.4255 H   0  0  0  0  0  0  0  0  0  0  0  0
  -10.0473  -24.2136   14.7534 H   0  0  0  0  0  0  0  0  0  0  0  0
   -9.8625  -22.9726   13.6023 H   0  0  0  0  0  0  0  0  0  0  0  0
   -6.8918  -22.4945   12.9068 H   0  0  0  0  0  0  0  0  0  0  0  0
   -8.4501  -22.0155   12.8980 H   0  0  0  0  0  0  0  0  0  0  0  0
   -7.1113  -21.0049   13.4394 H   0  0  0  0  0  0  0  0  0  0  0  0
   -9.4350  -21.4367   16.4853 H   0  0  0  0  0  0  0  0  0  0  0  0
  -10.0050  -22.8683   15.8275 H   0  0  0  0  0  0  0  0  0  0  0  0
   -9.8568  -21.4848   14.7624 H   0  0  0  0  0  0  0  0  0  0  0  0
  1  2  3  0
  2  3  1  0
  3  4  1  0
  4  5  1  0
  5  6  2  0
  5  7  2  0
  5  8  1  0
  8  9  1  0
  9 10  1  0
 10 11  1  0
 11 12  1  0
 12 13  1  0
 13 14  1  0
 14 15  1  0
  3 16  1  0
 16 17  1  0
 16 18  1  0
 16 19  1  0
 15 10  1  0
  1 20  1  0
  3 21  1  0
  4 22  1  0
  8 23  1  0
  8 24  1  0
  9 25  1  0
  9 26  1  0
 10 27  1  0
 11 28  1  0
 11 29  1  0
 12 30  1  0
 12 31  1  0
 13 32  1  0
 13 33  1  0
 15 34  1  0
 15 35  1  0
 17 36  1  0
 17 37  1  0
 17 38  1  0
 18 39  1  0
 18 40  1  0
 18 41  1  0
 19 42  1  0
 19 43  1  0
 19 44  1  0
M  END
>  <Energy>  (228) 
1822.8960676753611

>  <compound_id>  (228) 
61177

>  <target_id>  (228) 
1

>  <reference_id>  (228) 
111

>  <inspiration_ids>  (228) 
[112, 111]

>  <energy_score>  (228) 
1817.350642766334

>  <distance_score>  (228) 
11.167961591132043

>  <path>  (228) 
/opt/xchem-fragalysis-2/maxwin/BulkDock/SCRATCH/511024/C61177-P111/C61177-P111.minimised.mol

>  <scratch_subdir>  (228) 
/opt/xchem-fragalysis-2/maxwin/BulkDock/SCRATCH/511024/C61177-P111

>  <fragmenstein_runtime>  (228) 
85.12898135185242

>  <fragmenstein_outcome>  (228) 
too moved

>  <fragmenstein_mode>  (228) 
expansion

>  <fragmenstein_error>  (228) 


$$$$
C61178-P112
     RDKit          3D

 44 44  0  0  0  0  0  0  0  0999 V2000
   -0.6920  -15.0668   12.2605 C   0  0  0  0  0  0  0  0  0  0  0  0
   -1.5312  -15.7810   12.7603 C   0  0  0  0  0  0  0  0  0  0  0  0
   -2.5373  -16.7005   13.4786 C   0  0  0  0  0  0  0  0  0  0  0  0
   -3.4907  -17.7163   12.6103 C   0  0  0  0  0  0  0  0  0  0  0  0
   -3.1375  -19.1019   11.7218 N   0  0  0  0  0  0  0  0  0  0  0  0
   -1.7547  -18.5982   11.9310 C   0  0  0  0  0  0  0  0  0  0  0  0
   -0.6537  -19.4668   11.3024 C   0  0  0  0  0  0  0  0  0  0  0  0
   -3.8784  -20.3563   12.3120 C   0  0  0  0  0  0  0  0  0  0  0  0
   -3.4494  -21.1053   13.1480 O   0  0  0  0  0  0  0  0  0  0  0  0
   -5.5645  -21.0046   11.6513 C   0  0  0  0  0  0  0  0  0  0  0  0
   -5.5376  -22.1866   10.7659 O   0  0  0  0  0  0  0  0  0  0  0  0
   -4.9914  -23.4748   11.1091 C   0  0  0  0  0  0  0  0  0  0  0  0
   -5.2885  -24.4227    9.9551 C   0  0  0  0  0  0  0  0  0  0  0  0
   -7.1188  -21.2068   12.3240 C   0  0  0  0  0  0  0  0  0  0  0  0
   -7.5267  -22.5727   12.8235 C   0  0  0  0  0  0  0  0  0  0  0  0
   -8.8885  -23.4916   12.6852 C   0  0  0  0  0  0  0  0  0  0  0  0
   -9.9254  -22.7403   12.1209 O   0  0  0  0  0  0  0  0  0  0  0  0
   -9.6998  -21.4921   12.7155 C   0  0  0  0  0  0  0  0  0  0  0  0
   -8.5195  -20.6733   11.8682 C   0  0  0  0  0  0  0  0  0  0  0  0
    0.0622  -14.4249   11.8675 H   0  0  0  0  0  0  0  0  0  0  0  0
   -3.2380  -16.0184   13.9813 H   0  0  0  0  0  0  0  0  0  0  0  0
   -2.0294  -17.2360   14.2888 H   0  0  0  0  0  0  0  0  0  0  0  0
   -4.3792  -17.9539   13.2045 H   0  0  0  0  0  0  0  0  0  0  0  0
   -3.8531  -17.0344   11.8249 H   0  0  0  0  0  0  0  0  0  0  0  0
   -1.6260  -17.6651   11.3780 H   0  0  0  0  0  0  0  0  0  0  0  0
   -1.4620  -18.6537   12.9826 H   0  0  0  0  0  0  0  0  0  0  0  0
    0.3252  -19.0161   11.5035 H   0  0  0  0  0  0  0  0  0  0  0  0
   -0.6390  -20.4718   11.7317 H   0  0  0  0  0  0  0  0  0  0  0  0
   -0.7588  -19.5295   10.2159 H   0  0  0  0  0  0  0  0  0  0  0  0
   -5.8733  -20.2685   10.9445 H   0  0  0  0  0  0  0  0  0  0  0  0
   -5.3832  -23.9845   11.9775 H   0  0  0  0  0  0  0  0  0  0  0  0
   -3.9179  -23.4398   11.2936 H   0  0  0  0  0  0  0  0  0  0  0  0
   -6.3646  -24.5868    9.8488 H   0  0  0  0  0  0  0  0  0  0  0  0
   -4.8092  -25.3926   10.1190 H   0  0  0  0  0  0  0  0  0  0  0  0
   -4.9273  -24.0082    9.0085 H   0  0  0  0  0  0  0  0  0  0  0  0
   -6.9407  -20.6631   13.1918 H   0  0  0  0  0  0  0  0  0  0  0  0
   -6.7449  -23.2546   12.6174 H   0  0  0  0  0  0  0  0  0  0  0  0
   -7.5872  -22.2806   13.8822 H   0  0  0  0  0  0  0  0  0  0  0  0
   -9.2622  -23.8485   13.6561 H   0  0  0  0  0  0  0  0  0  0  0  0
   -8.7000  -24.4015   12.0982 H   0  0  0  0  0  0  0  0  0  0  0  0
  -10.5993  -20.9499   12.9363 H   0  0  0  0  0  0  0  0  0  0  0  0
   -9.4712  -21.6831   13.7794 H   0  0  0  0  0  0  0  0  0  0  0  0
   -8.6764  -20.6210   10.7990 H   0  0  0  0  0  0  0  0  0  0  0  0
   -8.6408  -19.6215   12.0707 H   0  0  0  0  0  0  0  0  0  0  0  0
  1  2  3  0
  2  3  1  0
  3  4  1  0
  4  5  1  0
  5  6  1  0
  6  7  1  0
  5  8  1  0
  8  9  2  0
  8 10  1  0
 10 11  1  0
 11 12  1  0
 12 13  1  0
 10 14  1  0
 14 15  1  0
 15 16  1  0
 16 17  1  0
 17 18  1  0
 18 19  1  0
 19 14  1  0
  1 20  1  0
  3 21  1  0
  3 22  1  0
  4 23  1  0
  4 24  1  0
  6 25  1  0
  6 26  1  0
  7 27  1  0
  7 28  1  0
  7 29  1  0
 10 30  1  0
 12 31  1  0
 12 32  1  0
 13 33  1  0
 13 34  1  0
 13 35  1  0
 14 36  1  0
 15 37  1  0
 15 38  1  0
 16 39  1  0
 16 40  1  0
 18 41  1  0
 18 42  1  0
 19 43  1  0
 19 44  1  0
M  END
>  <Energy>  (229) 
322.28813896653838

>  <compound_id>  (229) 
61178

>  <target_id>  (229) 
1

>  <reference_id>  (229) 
112

>  <inspiration_ids>  (229) 
[112, 111]

>  <energy_score>  (229) 
230.0670633789802

>  <distance_score>  (229) 
12.031489207890269

>  <path>  (229) 
/opt/xchem-fragalysis-2/maxwin/BulkDock/SCRATCH/511024/C61178-P112/C61178-P112.minimised.mol

>  <scratch_subdir>  (229) 
/opt/xchem-fragalysis-2/maxwin/BulkDock/SCRATCH/511024/C61178-P112

>  <fragmenstein_runtime>  (229) 
17.456862688064575

>  <fragmenstein_outcome>  (229) 
too moved

>  <fragmenstein_mode>  (229) 
expansion

>  <fragmenstein_error>  (229) 


$$$$
C61178-P111
     RDKit          3D

 44 44  0  0  0  0  0  0  0  0999 V2000
    3.5243  -18.2639   11.5624 C   0  0  0  0  0  0  0  0  0  0  0  0
    2.6102  -19.0264   11.7766 C   0  0  0  0  0  0  0  0  0  0  0  0
    1.4281  -19.9342   12.1660 C   0  0  0  0  0  0  0  0  0  0  0  0
    1.3442  -21.4487   11.6083 C   0  0  0  0  0  0  0  0  0  0  0  0
    0.2266  -21.9010   10.5622 N   0  0  0  0  0  0  0  0  0  0  0  0
    1.0133  -20.9891    9.6649 C   0  0  0  0  0  0  0  0  0  0  0  0
    0.4529  -21.1328    8.2385 C   0  0  0  0  0  0  0  0  0  0  0  0
    0.0909  -23.3633   10.5570 C   0  0  0  0  0  0  0  0  0  0  0  0
    0.6522  -24.2015    9.8837 O   0  0  0  0  0  0  0  0  0  0  0  0
   -1.0859  -23.9892   11.5331 C   0  0  0  0  0  0  0  0  0  0  0  0
   -1.5102  -23.2361   12.6636 O   0  0  0  0  0  0  0  0  0  0  0  0
   -1.4182  -23.9611   13.8898 C   0  0  0  0  0  0  0  0  0  0  0  0
   -1.7560  -23.0212   15.0143 C   0  0  0  0  0  0  0  0  0  0  0  0
   -2.3591  -24.7822   10.8917 C   0  0  0  0  0  0  0  0  0  0  0  0
   -3.7254  -24.5067   11.5475 C   0  0  0  0  0  0  0  0  0  0  0  0
   -4.8809  -25.3737   11.0467 C   0  0  0  0  0  0  0  0  0  0  0  0
   -4.7863  -25.7460    9.6788 O   0  0  0  0  0  0  0  0  0  0  0  0
   -4.0215  -24.8222    8.9130 C   0  0  0  0  0  0  0  0  0  0  0  0
   -2.5469  -24.7750    9.3640 C   0  0  0  0  0  0  0  0  0  0  0  0
    4.3480  -17.6129   11.3825 H   0  0  0  0  0  0  0  0  0  0  0  0
    1.4878  -20.0188   13.2605 H   0  0  0  0  0  0  0  0  0  0  0  0
    0.4850  -19.4131   11.9609 H   0  0  0  0  0  0  0  0  0  0  0  0
    1.0376  -22.0251   12.4956 H   0  0  0  0  0  0  0  0  0  0  0  0
    2.3320  -21.8830   11.3811 H   0  0  0  0  0  0  0  0  0  0  0  0
    0.8525  -19.9322    9.8950 H   0  0  0  0  0  0  0  0  0  0  0  0
    2.0715  -21.2649    9.5429 H   0  0  0  0  0  0  0  0  0  0  0  0
    0.5309  -22.1651    7.8825 H   0  0  0  0  0  0  0  0  0  0  0  0
    1.0102  -20.4905    7.5489 H   0  0  0  0  0  0  0  0  0  0  0  0
   -0.6001  -20.8381    8.1970 H   0  0  0  0  0  0  0  0  0  0  0  0
   -0.4874  -24.8207   11.9460 H   0  0  0  0  0  0  0  0  0  0  0  0
   -0.3882  -24.3102   14.0308 H   0  0  0  0  0  0  0  0  0  0  0  0
   -2.0776  -24.8319   13.8981 H   0  0  0  0  0  0  0  0  0  0  0  0
   -1.0607  -22.1744   15.0247 H   0  0  0  0  0  0  0  0  0  0  0  0
   -2.7447  -22.6016   14.8697 H   0  0  0  0  0  0  0  0  0  0  0  0
   -1.6929  -23.5250   15.9814 H   0  0  0  0  0  0  0  0  0  0  0  0
   -2.1505  -25.8355   11.1403 H   0  0  0  0  0  0  0  0  0  0  0  0
   -3.6585  -24.6405   12.6201 H   0  0  0  0  0  0  0  0  0  0  0  0
   -3.9955  -23.4687   11.3675 H   0  0  0  0  0  0  0  0  0  0  0  0
   -5.8342  -24.8581   11.2047 H   0  0  0  0  0  0  0  0  0  0  0  0
   -4.9239  -26.3027   11.6256 H   0  0  0  0  0  0  0  0  0  0  0  0
   -4.0644  -25.1415    7.8662 H   0  0  0  0  0  0  0  0  0  0  0  0
   -4.4946  -23.8383    8.9576 H   0  0  0  0  0  0  0  0  0  0  0  0
   -2.0419  -25.6667    8.9686 H   0  0  0  0  0  0  0  0  0  0  0  0
   -2.0549  -23.9283    8.8817 H   0  0  0  0  0  0  0  0  0  0  0  0
  1  2  3  0
  2  3  1  0
  3  4  1  0
  4  5  1  0
  5  6  1  0
  6  7  1  0
  5  8  1  0
  8  9  2  0
  8 10  1  0
 10 11  1  0
 11 12  1  0
 12 13  1  0
 10 14  1  0
 14 15  1  0
 15 16  1  0
 16 17  1  0
 17 18  1  0
 18 19  1  0
 19 14  1  0
  1 20  1  0
  3 21  1  0
  3 22  1  0
  4 23  1  0
  4 24  1  0
  6 25  1  0
  6 26  1  0
  7 27  1  0
  7 28  1  0
  7 29  1  0
 10 30  1  0
 12 31  1  0
 12 32  1  0
 13 33  1  0
 13 34  1  0
 13 35  1  0
 14 36  1  0
 15 37  1  0
 15 38  1  0
 16 39  1  0
 16 40  1  0
 18 41  1  0
 18 42  1  0
 19 43  1  0
 19 44  1  0
M  END
>  <Energy>  (230) 
163.11239727049013

>  <compound_id>  (230) 
61178

>  <target_id>  (230) 
1

>  <reference_id>  (230) 
111

>  <inspiration_ids>  (230) 
[112, 111]

>  <energy_score>  (230) 
70.89132168293001

>  <distance_score>  (230) 
14.137411554492472

>  <path>  (230) 
/opt/xchem-fragalysis-2/maxwin/BulkDock/SCRATCH/511024/C61178-P111/C61178-P111.minimised.mol

>  <scratch_subdir>  (230) 
/opt/xchem-fragalysis-2/maxwin/BulkDock/SCRATCH/511024/C61178-P111

>  <fragmenstein_runtime>  (230) 
17.972275495529175

>  <fragmenstein_outcome>  (230) 
too moved

>  <fragmenstein_mode>  (230) 
expansion

>  <fragmenstein_error>  (230) 


$$$$
C61188-P112
     RDKit          3D

 37 37  0  0  0  0  0  0  0  0999 V2000
   -8.4368  -19.6316   19.1053 C   0  0  0  0  0  0  0  0  0  0  0  0
   -9.2758  -18.6016   19.2768 C   0  0  0  0  0  0  0  0  0  0  0  0
   -9.0619  -17.1455   18.9245 C   0  0  0  0  0  0  0  0  0  0  0  0
   -7.6576  -17.0090   18.4102 N   0  0  0  0  0  0  0  0  0  0  0  0
   -7.0743  -15.4253   18.2150 S   0  0  0  0  0  0  0  0  0  0  0  0
   -7.3278  -15.2237   16.8061 O   0  0  0  0  0  0  0  0  0  0  0  0
   -7.7587  -14.6496   19.2171 O   0  0  0  0  0  0  0  0  0  0  0  0
   -5.2522  -15.4576   18.5786 C   0  0  0  0  0  0  0  0  0  0  0  0
   -4.6442  -14.0398   18.8244 C   0  0  0  0  0  0  0  0  0  0  0  0
   -3.1327  -13.8427   18.5532 C   0  0  0  0  0  0  0  0  0  0  0  0
   -5.3399  -13.1031   18.1470 F   0  0  0  0  0  0  0  0  0  0  0  0
   -4.8327  -13.7463   20.1477 F   0  0  0  0  0  0  0  0  0  0  0  0
  -10.1327  -16.4967   17.9848 C   0  0  0  0  0  0  0  0  0  0  0  0
  -10.0778  -16.9631   16.5256 C   0  0  0  0  0  0  0  0  0  0  0  0
  -11.2674  -16.5075   15.7101 C   0  0  0  0  0  0  0  0  0  0  0  0
  -12.4836  -16.8633   16.3631 O   0  0  0  0  0  0  0  0  0  0  0  0
  -12.6249  -16.1427   17.5804 C   0  0  0  0  0  0  0  0  0  0  0  0
  -11.5598  -16.5826   18.5750 C   0  0  0  0  0  0  0  0  0  0  0  0
   -7.4687  -19.5378   18.6292 H   0  0  0  0  0  0  0  0  0  0  0  0
   -8.7129  -20.5942   19.4960 H   0  0  0  0  0  0  0  0  0  0  0  0
  -10.1931  -18.7981   19.8282 H   0  0  0  0  0  0  0  0  0  0  0  0
   -9.1056  -16.6232   19.8903 H   0  0  0  0  0  0  0  0  0  0  0  0
   -7.6691  -17.4145   17.4770 H   0  0  0  0  0  0  0  0  0  0  0  0
   -5.1341  -16.0657   19.4810 H   0  0  0  0  0  0  0  0  0  0  0  0
   -4.7753  -15.9649   17.7375 H   0  0  0  0  0  0  0  0  0  0  0  0
   -2.5441  -14.4758   19.2236 H   0  0  0  0  0  0  0  0  0  0  0  0
   -2.8514  -12.8011   18.7352 H   0  0  0  0  0  0  0  0  0  0  0  0
   -2.8868  -14.0955   17.5231 H   0  0  0  0  0  0  0  0  0  0  0  0
   -9.9174  -15.4199   17.9454 H   0  0  0  0  0  0  0  0  0  0  0  0
  -10.0453  -18.0416   16.4909 H   0  0  0  0  0  0  0  0  0  0  0  0
   -9.1684  -16.6172   16.0295 H   0  0  0  0  0  0  0  0  0  0  0  0
  -11.2195  -17.0067   14.7424 H   0  0  0  0  0  0  0  0  0  0  0  0
  -11.2428  -15.4272   15.5249 H   0  0  0  0  0  0  0  0  0  0  0  0
  -12.5684  -15.0646   17.3874 H   0  0  0  0  0  0  0  0  0  0  0  0
  -13.6193  -16.3442   17.9886 H   0  0  0  0  0  0  0  0  0  0  0  0
  -11.7966  -17.5984   18.8971 H   0  0  0  0  0  0  0  0  0  0  0  0
  -11.6217  -15.9594   19.4754 H   0  0  0  0  0  0  0  0  0  0  0  0
  1  2  2  0
  2  3  1  0
  3  4  1  0
  4  5  1  0
  5  6  2  0
  5  7  2  0
  5  8  1  0
  8  9  1  0
  9 10  1  0
  9 11  1  0
  9 12  1  0
  3 13  1  0
 13 14  1  0
 14 15  1  0
 15 16  1  0
 16 17  1  0
 17 18  1  0
 18 13  1  0
  1 19  1  0
  1 20  1  0
  2 21  1  0
  3 22  1  0
  4 23  1  0
  8 24  1  0
  8 25  1  0
 10 26  1  0
 10 27  1  0
 10 28  1  0
 13 29  1  0
 14 30  1  0
 14 31  1  0
 15 32  1  0
 15 33  1  0
 17 34  1  0
 17 35  1  0
 18 36  1  0
 18 37  1  0
M  END
>  <Energy>  (231) 
-94.398767407885714

>  <compound_id>  (231) 
61188

>  <target_id>  (231) 
1

>  <reference_id>  (231) 
112

>  <inspiration_ids>  (231) 
[112, 111]

>  <energy_score>  (231) 
-37.08745126811393

>  <distance_score>  (231) 
15.275489910026579

>  <path>  (231) 
/opt/xchem-fragalysis-2/maxwin/BulkDock/SCRATCH/511024/C61188-P112/C61188-P112.minimised.mol

>  <scratch_subdir>  (231) 
/opt/xchem-fragalysis-2/maxwin/BulkDock/SCRATCH/511024/C61188-P112

>  <fragmenstein_runtime>  (231) 
9.938240051269531

>  <fragmenstein_outcome>  (231) 
too moved

>  <fragmenstein_mode>  (231) 
expansion

>  <fragmenstein_error>  (231) 


$$$$
C61188-P111
     RDKit          3D

 37 37  0  0  0  0  0  0  0  0999 V2000
   -9.9073  -23.3127   12.0931 C   0  0  0  0  0  0  0  0  0  0  0  0
   -9.7278  -23.8378   10.8703 C   0  0  0  0  0  0  0  0  0  0  0  0
  -10.0987  -23.2003    9.5316 C   0  0  0  0  0  0  0  0  0  0  0  0
   -9.7625  -21.7263    9.6394 N   0  0  0  0  0  0  0  0  0  0  0  0
   -9.6927  -20.6932    8.2455 S   0  0  0  0  0  0  0  0  0  0  0  0
  -11.0523  -20.6931    7.7496 O   0  0  0  0  0  0  0  0  0  0  0  0
   -8.6495  -21.2186    7.3949 O   0  0  0  0  0  0  0  0  0  0  0  0
   -9.2679  -18.9903    8.9642 C   0  0  0  0  0  0  0  0  0  0  0  0
   -8.4790  -17.9801    8.0661 C   0  0  0  0  0  0  0  0  0  0  0  0
   -7.9537  -16.7185    8.7911 C   0  0  0  0  0  0  0  0  0  0  0  0
   -9.3216  -17.5588    7.0798 F   0  0  0  0  0  0  0  0  0  0  0  0
   -7.4479  -18.5690    7.4206 F   0  0  0  0  0  0  0  0  0  0  0  0
  -11.5700  -23.5250    9.1352 C   0  0  0  0  0  0  0  0  0  0  0  0
  -11.6470  -24.2659    7.7888 C   0  0  0  0  0  0  0  0  0  0  0  0
  -13.1024  -24.5489    7.4140 C   0  0  0  0  0  0  0  0  0  0  0  0
  -13.7611  -25.3139    8.4228 O   0  0  0  0  0  0  0  0  0  0  0  0
  -13.7943  -24.6350    9.6724 C   0  0  0  0  0  0  0  0  0  0  0  0
  -12.3745  -24.3781   10.1592 C   0  0  0  0  0  0  0  0  0  0  0  0
  -10.3305  -22.3217   12.2331 H   0  0  0  0  0  0  0  0  0  0  0  0
   -9.6563  -23.8713   12.9874 H   0  0  0  0  0  0  0  0  0  0  0  0
   -9.3190  -24.8449   10.8012 H   0  0  0  0  0  0  0  0  0  0  0  0
   -9.4150  -23.6202    8.7846 H   0  0  0  0  0  0  0  0  0  0  0  0
   -8.8631  -21.6447   10.1326 H   0  0  0  0  0  0  0  0  0  0  0  0
  -10.2327  -18.5420    9.2131 H   0  0  0  0  0  0  0  0  0  0  0  0
   -8.7345  -19.1808    9.8987 H   0  0  0  0  0  0  0  0  0  0  0  0
   -7.4773  -17.0060    9.7264 H   0  0  0  0  0  0  0  0  0  0  0  0
   -8.7901  -16.0538    9.0300 H   0  0  0  0  0  0  0  0  0  0  0  0
   -7.2627  -16.1699    8.1468 H   0  0  0  0  0  0  0  0  0  0  0  0
  -12.0976  -22.5856    8.9657 H   0  0  0  0  0  0  0  0  0  0  0  0
  -11.1718  -23.6742    6.9983 H   0  0  0  0  0  0  0  0  0  0  0  0
  -11.1032  -25.2157    7.8665 H   0  0  0  0  0  0  0  0  0  0  0  0
  -13.1369  -25.1270    6.4850 H   0  0  0  0  0  0  0  0  0  0  0  0
  -13.6561  -23.6180    7.2428 H   0  0  0  0  0  0  0  0  0  0  0  0
  -14.3682  -23.7072    9.5709 H   0  0  0  0  0  0  0  0  0  0  0  0
  -14.3228  -25.2749   10.3861 H   0  0  0  0  0  0  0  0  0  0  0  0
  -11.8790  -25.3504   10.2823 H   0  0  0  0  0  0  0  0  0  0  0  0
  -12.4216  -23.9060   11.1439 H   0  0  0  0  0  0  0  0  0  0  0  0
  1  2  2  0
  2  3  1  0
  3  4  1  0
  4  5  1  0
  5  6  2  0
  5  7  2  0
  5  8  1  0
  8  9  1  0
  9 10  1  0
  9 11  1  0
  9 12  1  0
  3 13  1  0
 13 14  1  0
 14 15  1  0
 15 16  1  0
 16 17  1  0
 17 18  1  0
 18 13  1  0
  1 19  1  0
  1 20  1  0
  2 21  1  0
  3 22  1  0
  4 23  1  0
  8 24  1  0
  8 25  1  0
 10 26  1  0
 10 27  1  0
 10 28  1  0
 13 29  1  0
 14 30  1  0
 14 31  1  0
 15 32  1  0
 15 33  1  0
 17 34  1  0
 17 35  1  0
 18 36  1  0
 18 37  1  0
M  END
>  <Energy>  (232) 
-82.976728830423994

>  <compound_id>  (232) 
61188

>  <target_id>  (232) 
1

>  <reference_id>  (232) 
111

>  <inspiration_ids>  (232) 
[112, 111]

>  <energy_score>  (232) 
-25.66541269065131

>  <distance_score>  (232) 
15.836034954957416

>  <path>  (232) 
/opt/xchem-fragalysis-2/maxwin/BulkDock/SCRATCH/511024/C61188-P111/C61188-P111.minimised.mol

>  <scratch_subdir>  (232) 
/opt/xchem-fragalysis-2/maxwin/BulkDock/SCRATCH/511024/C61188-P111

>  <fragmenstein_runtime>  (232) 
12.10019040107727

>  <fragmenstein_outcome>  (232) 
too moved

>  <fragmenstein_mode>  (232) 
expansion

>  <fragmenstein_error>  (232) 


$$$$
C61198-P112
     RDKit          3D

 46 46  0  0  0  0  0  0  0  0999 V2000
   -5.6613  -21.3465   11.6088 N   0  0  0  0  0  0  0  0  0  0  0  0
   -4.5724  -20.0677   11.7950 S   0  0  0  0  0  0  0  0  0  0  0  0
   -3.2809  -20.7081   11.8190 O   0  0  0  0  0  0  0  0  0  0  0  0
   -4.9147  -19.1316   10.7469 O   0  0  0  0  0  0  0  0  0  0  0  0
   -4.9464  -19.3075   13.4123 C   0  0  0  0  0  0  0  0  0  0  0  0
   -3.8398  -19.2986   14.4952 C   0  0  0  0  0  0  0  0  0  0  0  0
   -4.0630  -18.4773   15.8205 C   0  0  0  0  0  0  0  0  0  0  0  0
   -4.0337  -16.8602   15.9599 C   0  0  0  0  0  0  0  0  0  0  0  0
   -3.0080  -15.9782   14.9162 C   0  0  0  0  0  0  0  0  0  0  0  0
   -1.5438  -14.4321   14.7551 C   0  0  0  0  0  0  0  0  0  0  0  0
   -0.4022  -13.4793   13.1846 C   0  0  0  0  0  0  0  0  0  0  0  0
   -0.7158  -13.7959   12.0524 O   0  0  0  0  0  0  0  0  0  0  0  0
    0.8118  -12.1955   13.5732 N   0  0  0  0  0  0  0  0  0  0  0  0
    1.7894  -10.9285   12.4622 C   0  0  0  0  0  0  0  0  0  0  0  0
    3.6239  -10.0945   13.1317 C   0  0  0  0  0  0  0  0  0  0  0  0
    4.3305   -8.3432   13.6156 C   0  0  0  0  0  0  0  0  0  0  0  0
    6.1211   -8.0622   14.0151 C   0  0  0  0  0  0  0  0  0  0  0  0
    6.9084   -9.8540   13.7003 C   0  0  0  0  0  0  0  0  0  0  0  0
    6.0295  -10.8354   13.2975 O   0  0  0  0  0  0  0  0  0  0  0  0
    4.7959  -10.8428   13.8981 C   0  0  0  0  0  0  0  0  0  0  0  0
   -5.5969  -21.8996   12.4804 H   0  0  0  0  0  0  0  0  0  0  0  0
   -5.1904  -21.9693   10.9382 H   0  0  0  0  0  0  0  0  0  0  0  0
   -5.2871  -18.2876   13.2076 H   0  0  0  0  0  0  0  0  0  0  0  0
   -5.7841  -19.8932   13.7366 H   0  0  0  0  0  0  0  0  0  0  0  0
   -2.8625  -19.0241   14.0975 H   0  0  0  0  0  0  0  0  0  0  0  0
   -3.6659  -20.3386   14.7955 H   0  0  0  0  0  0  0  0  0  0  0  0
   -3.2730  -18.8266   16.5011 H   0  0  0  0  0  0  0  0  0  0  0  0
   -4.9870  -18.8131   16.2967 H   0  0  0  0  0  0  0  0  0  0  0  0
   -3.8366  -16.5986   17.0003 H   0  0  0  0  0  0  0  0  0  0  0  0
   -5.0734  -16.6064   15.7495 H   0  0  0  0  0  0  0  0  0  0  0  0
   -3.7390  -16.1254   14.0499 H   0  0  0  0  0  0  0  0  0  0  0  0
   -2.5184  -16.9146   14.6497 H   0  0  0  0  0  0  0  0  0  0  0  0
   -0.7075  -14.4512   15.5775 H   0  0  0  0  0  0  0  0  0  0  0  0
   -1.6867  -13.8581   15.8514 H   0  0  0  0  0  0  0  0  0  0  0  0
    0.9610  -12.1773   14.5412 H   0  0  0  0  0  0  0  0  0  0  0  0
    1.9520  -10.8854   13.5028 H   0  0  0  0  0  0  0  0  0  0  0  0
    1.0625  -10.3940   11.8388 H   0  0  0  0  0  0  0  0  0  0  0  0
    3.5027   -9.9830   12.0256 H   0  0  0  0  0  0  0  0  0  0  0  0
    3.7340   -7.8367   14.3693 H   0  0  0  0  0  0  0  0  0  0  0  0
    4.0556   -7.6088   12.8547 H   0  0  0  0  0  0  0  0  0  0  0  0
    6.5349   -7.4400   14.8116 H   0  0  0  0  0  0  0  0  0  0  0  0
    6.4931   -7.4472   13.1775 H   0  0  0  0  0  0  0  0  0  0  0  0
    7.7987  -10.1648   14.2581 H   0  0  0  0  0  0  0  0  0  0  0  0
    7.4435   -9.5902   12.8556 H   0  0  0  0  0  0  0  0  0  0  0  0
    4.7857  -11.8867   14.1326 H   0  0  0  0  0  0  0  0  0  0  0  0
    4.6621  -10.5631   14.8977 H   0  0  0  0  0  0  0  0  0  0  0  0
  1  2  1  0
  2  3  2  0
  2  4  2  0
  2  5  1  0
  5  6  1  0
  6  7  1  0
  7  8  1  0
  8  9  1  0
  9 10  1  0
 10 11  1  0
 11 12  2  0
 11 13  1  0
 13 14  1  0
 14 15  1  0
 15 16  1  0
 16 17  1  0
 17 18  1  0
 18 19  1  0
 19 20  1  0
 20 15  1  0
  1 21  1  0
  1 22  1  0
  5 23  1  0
  5 24  1  0
  6 25  1  0
  6 26  1  0
  7 27  1  0
  7 28  1  0
  8 29  1  0
  8 30  1  0
  9 31  1  0
  9 32  1  0
 10 33  1  0
 10 34  1  0
 13 35  1  0
 14 36  1  0
 14 37  1  0
 15 38  1  0
 16 39  1  0
 16 40  1  0
 17 41  1  0
 17 42  1  0
 18 43  1  0
 18 44  1  0
 20 45  1  0
 20 46  1  0
M  END
>  <Energy>  (233) 
714.89868539099871

>  <compound_id>  (233) 
61198

>  <target_id>  (233) 
1

>  <reference_id>  (233) 
112

>  <inspiration_ids>  (233) 
[112, 111]

>  <energy_score>  (233) 
761.3855744451179

>  <distance_score>  (233) 
10.417785800113878

>  <path>  (233) 
/opt/xchem-fragalysis-2/maxwin/BulkDock/SCRATCH/511024/C61198-P112/C61198-P112.minimised.mol

>  <scratch_subdir>  (233) 
/opt/xchem-fragalysis-2/maxwin/BulkDock/SCRATCH/511024/C61198-P112

>  <fragmenstein_runtime>  (233) 
56.59469699859619

>  <fragmenstein_outcome>  (233) 
too moved

>  <fragmenstein_mode>  (233) 
expansion

>  <fragmenstein_error>  (233) 


$$$$
C61198-P111
     RDKit          3D

 46 46  0  0  0  0  0  0  0  0999 V2000
   -7.9498  -15.7639   10.6370 N   0  0  0  0  0  0  0  0  0  0  0  0
   -7.5558  -17.3742   10.7136 S   0  0  0  0  0  0  0  0  0  0  0  0
   -6.5642  -17.6001    9.6899 O   0  0  0  0  0  0  0  0  0  0  0  0
   -8.8323  -18.0503   10.6942 O   0  0  0  0  0  0  0  0  0  0  0  0
   -6.8112  -17.5311   12.3031 C   0  0  0  0  0  0  0  0  0  0  0  0
   -5.5959  -16.7416   12.7045 C   0  0  0  0  0  0  0  0  0  0  0  0
   -5.0066  -17.1839   14.1374 C   0  0  0  0  0  0  0  0  0  0  0  0
   -3.5311  -16.5688   14.7394 C   0  0  0  0  0  0  0  0  0  0  0  0
   -2.3972  -15.0322   15.0775 C   0  0  0  0  0  0  0  0  0  0  0  0
   -0.9539  -14.0256   13.9729 C   0  0  0  0  0  0  0  0  0  0  0  0
    0.5563  -12.7945   13.7452 C   0  0  0  0  0  0  0  0  0  0  0  0
    0.4617  -12.2141   12.6523 O   0  0  0  0  0  0  0  0  0  0  0  0
    1.8834  -12.6648   15.0344 N   0  0  0  0  0  0  0  0  0  0  0  0
    3.6663  -11.4936   15.0940 C   0  0  0  0  0  0  0  0  0  0  0  0
    5.0999  -10.4190   14.0631 C   0  0  0  0  0  0  0  0  0  0  0  0
    5.7273   -8.4872   14.0135 C   0  0  0  0  0  0  0  0  0  0  0  0
    7.1630   -8.0732   15.1793 C   0  0  0  0  0  0  0  0  0  0  0  0
    8.1270   -9.9413   15.8092 C   0  0  0  0  0  0  0  0  0  0  0  0
    8.3563  -10.7823   14.5600 O   0  0  0  0  0  0  0  0  0  0  0  0
    6.8783  -10.9089   13.5812 C   0  0  0  0  0  0  0  0  0  0  0  0
   -8.9592  -15.6476   10.5350 H   0  0  0  0  0  0  0  0  0  0  0  0
   -7.4067  -15.2894    9.9142 H   0  0  0  0  0  0  0  0  0  0  0  0
   -7.6079  -17.2730   13.0043 H   0  0  0  0  0  0  0  0  0  0  0  0
   -6.4672  -18.5695   12.2653 H   0  0  0  0  0  0  0  0  0  0  0  0
   -4.8999  -16.9181   11.9043 H   0  0  0  0  0  0  0  0  0  0  0  0
   -5.8093  -15.6743   12.6446 H   0  0  0  0  0  0  0  0  0  0  0  0
   -4.8056  -18.2452   14.0536 H   0  0  0  0  0  0  0  0  0  0  0  0
   -5.7891  -17.0593   14.8970 H   0  0  0  0  0  0  0  0  0  0  0  0
   -3.7056  -16.1150   13.7862 H   0  0  0  0  0  0  0  0  0  0  0  0
   -3.9998  -16.4532   15.7232 H   0  0  0  0  0  0  0  0  0  0  0  0
   -1.9227  -15.1170   16.0649 H   0  0  0  0  0  0  0  0  0  0  0  0
   -3.0801  -14.4133   15.6813 H   0  0  0  0  0  0  0  0  0  0  0  0
   -1.1128  -13.9931   14.9925 H   0  0  0  0  0  0  0  0  0  0  0  0
   -0.3178  -14.7353   13.4070 H   0  0  0  0  0  0  0  0  0  0  0  0
    1.6310  -13.2057   15.8583 H   0  0  0  0  0  0  0  0  0  0  0  0
    3.6712  -11.2009   16.1520 H   0  0  0  0  0  0  0  0  0  0  0  0
    4.3823  -12.2694   14.9616 H   0  0  0  0  0  0  0  0  0  0  0  0
    4.5561  -10.5605   13.1640 H   0  0  0  0  0  0  0  0  0  0  0  0
    6.3498   -7.9625   13.2566 H   0  0  0  0  0  0  0  0  0  0  0  0
    4.7913   -7.9459   13.7814 H   0  0  0  0  0  0  0  0  0  0  0  0
    7.9594   -7.3215   14.9898 H   0  0  0  0  0  0  0  0  0  0  0  0
    6.6625   -7.3129   15.8586 H   0  0  0  0  0  0  0  0  0  0  0  0
    7.9649  -10.5548   16.7098 H   0  0  0  0  0  0  0  0  0  0  0  0
    9.1914   -9.6904   16.0726 H   0  0  0  0  0  0  0  0  0  0  0  0
    7.3264  -10.1984   12.9563 H   0  0  0  0  0  0  0  0  0  0  0  0
    6.9281  -11.9262   13.1652 H   0  0  0  0  0  0  0  0  0  0  0  0
  1  2  1  0
  2  3  2  0
  2  4  2  0
  2  5  1  0
  5  6  1  0
  6  7  1  0
  7  8  1  0
  8  9  1  0
  9 10  1  0
 10 11  1  0
 11 12  2  0
 11 13  1  0
 13 14  1  0
 14 15  1  0
 15 16  1  0
 16 17  1  0
 17 18  1  0
 18 19  1  0
 19 20  1  0
 20 15  1  0
  1 21  1  0
  1 22  1  0
  5 23  1  0
  5 24  1  0
  6 25  1  0
  6 26  1  0
  7 27  1  0
  7 28  1  0
  8 29  1  0
  8 30  1  0
  9 31  1  0
  9 32  1  0
 10 33  1  0
 10 34  1  0
 13 35  1  0
 14 36  1  0
 14 37  1  0
 15 38  1  0
 16 39  1  0
 16 40  1  0
 17 41  1  0
 17 42  1  0
 18 43  1  0
 18 44  1  0
 20 45  1  0
 20 46  1  0
M  END
>  <Energy>  (234) 
943.90481070096951

>  <compound_id>  (234) 
61198

>  <target_id>  (234) 
1

>  <reference_id>  (234) 
111

>  <inspiration_ids>  (234) 
[112, 111]

>  <energy_score>  (234) 
990.391699755101

>  <distance_score>  (234) 
10.528165690098914

>  <path>  (234) 
/opt/xchem-fragalysis-2/maxwin/BulkDock/SCRATCH/511024/C61198-P111/C61198-P111.minimised.mol

>  <scratch_subdir>  (234) 
/opt/xchem-fragalysis-2/maxwin/BulkDock/SCRATCH/511024/C61198-P111

>  <fragmenstein_runtime>  (234) 
61.08446979522705

>  <fragmenstein_outcome>  (234) 
too moved

>  <fragmenstein_mode>  (234) 
expansion

>  <fragmenstein_error>  (234) 


$$$$
C61199-P112
     RDKit          3D

 40 40  0  0  0  0  0  0  0  0999 V2000
   -2.6139  -16.4866   10.0257 C   0  0  0  0  0  0  0  0  0  0  0  0
   -2.0441  -15.2934    9.7809 C   0  0  0  0  0  0  0  0  0  0  0  0
   -1.0210  -14.9548    8.6723 C   0  0  0  0  0  0  0  0  0  0  0  0
    0.3884  -14.3647    9.0283 N   0  0  0  0  0  0  0  0  0  0  0  0
    0.5336  -15.6885    9.6981 C   0  0  0  0  0  0  0  0  0  0  0  0
    0.2497  -13.0432    9.5803 C   0  0  0  0  0  0  0  0  0  0  0  0
    0.1250  -12.6818   10.7212 O   0  0  0  0  0  0  0  0  0  0  0  0
    0.3962  -11.9009    8.4702 C   0  0  0  0  0  0  0  0  0  0  0  0
   -0.2787  -11.9346    7.5293 O   0  0  0  0  0  0  0  0  0  0  0  0
    1.4924  -10.7984    9.0092 N   0  0  0  0  0  0  0  0  0  0  0  0
    1.6671   -9.6291    8.4320 C   0  0  0  0  0  0  0  0  0  0  0  0
    0.0618   -8.8820    7.8729 C   0  0  0  0  0  0  0  0  0  0  0  0
    2.3101   -9.1419    8.2860 C   0  0  0  0  0  0  0  0  0  0  0  0
    3.9197   -9.6345    7.9060 C   0  0  0  0  0  0  0  0  0  0  0  0
    4.7780   -8.4572    7.4197 C   0  0  0  0  0  0  0  0  0  0  0  0
    4.4579   -7.1318    8.0972 C   0  0  0  0  0  0  0  0  0  0  0  0
    4.0524   -7.3445    9.4306 O   0  0  0  0  0  0  0  0  0  0  0  0
    2.7854   -7.9846    9.5624 C   0  0  0  0  0  0  0  0  0  0  0  0
   -3.2639  -16.6008   10.8858 H   0  0  0  0  0  0  0  0  0  0  0  0
   -2.3824  -17.3672    9.4335 H   0  0  0  0  0  0  0  0  0  0  0  0
   -2.2986  -14.4582   10.4214 H   0  0  0  0  0  0  0  0  0  0  0  0
   -1.5064  -14.1447    8.1082 H   0  0  0  0  0  0  0  0  0  0  0  0
   -0.9308  -15.7521    7.9158 H   0  0  0  0  0  0  0  0  0  0  0  0
    0.4010  -16.5951    9.0895 H   0  0  0  0  0  0  0  0  0  0  0  0
    1.6103  -15.7231    9.9112 H   0  0  0  0  0  0  0  0  0  0  0  0
    0.1043  -15.7184   10.7068 H   0  0  0  0  0  0  0  0  0  0  0  0
    1.0352   -9.3603    9.4572 H   0  0  0  0  0  0  0  0  0  0  0  0
    1.4184  -10.2993    7.3831 H   0  0  0  0  0  0  0  0  0  0  0  0
    0.0160   -8.9195    6.7775 H   0  0  0  0  0  0  0  0  0  0  0  0
   -0.7733   -9.4404    8.3061 H   0  0  0  0  0  0  0  0  0  0  0  0
    0.0447   -7.8342    8.1949 H   0  0  0  0  0  0  0  0  0  0  0  0
    2.1616   -8.5280    7.1850 H   0  0  0  0  0  0  0  0  0  0  0  0
    3.8782  -10.4232    7.1450 H   0  0  0  0  0  0  0  0  0  0  0  0
    4.3275  -10.0706    8.8143 H   0  0  0  0  0  0  0  0  0  0  0  0
    4.6566   -8.3331    6.3369 H   0  0  0  0  0  0  0  0  0  0  0  0
    5.8331   -8.7132    7.5691 H   0  0  0  0  0  0  0  0  0  0  0  0
    5.3445   -6.4894    8.0974 H   0  0  0  0  0  0  0  0  0  0  0  0
    3.6699   -6.5930    7.5578 H   0  0  0  0  0  0  0  0  0  0  0  0
    2.8132   -8.5450   10.4973 H   0  0  0  0  0  0  0  0  0  0  0  0
    1.9997   -7.2225    9.6271 H   0  0  0  0  0  0  0  0  0  0  0  0
  1  2  2  0
  2  3  1  0
  3  4  1  0
  4  5  1  0
  4  6  1  0
  6  7  2  0
  6  8  1  0
  8  9  2  0
  8 10  1  0
 10 11  1  0
 11 12  1  0
 10 13  1  0
 13 14  1  0
 14 15  1  0
 15 16  1  0
 16 17  1  0
 17 18  1  0
 18 13  1  0
  1 19  1  0
  1 20  1  0
  2 21  1  0
  3 22  1  0
  3 23  1  0
  5 24  1  0
  5 25  1  0
  5 26  1  0
 11 27  1  0
 11 28  1  0
 12 29  1  0
 12 30  1  0
 12 31  1  0
 13 32  1  0
 14 33  1  0
 14 34  1  0
 15 35  1  0
 15 36  1  0
 16 37  1  0
 16 38  1  0
 18 39  1  0
 18 40  1  0
M  END
>  <Energy>  (235) 
928.6667990076453

>  <compound_id>  (235) 
61199

>  <target_id>  (235) 
1

>  <reference_id>  (235) 
112

>  <inspiration_ids>  (235) 
[112, 111]

>  <energy_score>  (235) 
824.1519268723526

>  <distance_score>  (235) 
14.851057115482764

>  <path>  (235) 
/opt/xchem-fragalysis-2/maxwin/BulkDock/SCRATCH/511024/C61199-P112/C61199-P112.minimised.mol

>  <scratch_subdir>  (235) 
/opt/xchem-fragalysis-2/maxwin/BulkDock/SCRATCH/511024/C61199-P112

>  <fragmenstein_runtime>  (235) 
21.118463039398193

>  <fragmenstein_outcome>  (235) 
too moved

>  <fragmenstein_mode>  (235) 
expansion

>  <fragmenstein_error>  (235) 


$$$$
C61199-P111
     RDKit          3D

 40 40  0  0  0  0  0  0  0  0999 V2000
   -2.0164  -18.7435   11.3569 C   0  0  0  0  0  0  0  0  0  0  0  0
   -1.8263  -17.7301   10.4895 C   0  0  0  0  0  0  0  0  0  0  0  0
   -0.4587  -17.0427   10.2386 C   0  0  0  0  0  0  0  0  0  0  0  0
    0.1030  -16.8996    8.7841 N   0  0  0  0  0  0  0  0  0  0  0  0
    0.0031  -18.3812    8.8291 C   0  0  0  0  0  0  0  0  0  0  0  0
    1.2595  -16.0359    8.7794 C   0  0  0  0  0  0  0  0  0  0  0  0
    2.4304  -16.2951    8.9020 O   0  0  0  0  0  0  0  0  0  0  0  0
    0.9903  -14.5084    8.4551 C   0  0  0  0  0  0  0  0  0  0  0  0
    0.4387  -14.1981    7.4963 O   0  0  0  0  0  0  0  0  0  0  0  0
    1.7287  -13.6450    9.6505 N   0  0  0  0  0  0  0  0  0  0  0  0
    1.6541  -12.3220    9.6946 C   0  0  0  0  0  0  0  0  0  0  0  0
    0.0014  -12.5358   10.4145 C   0  0  0  0  0  0  0  0  0  0  0  0
    2.1858  -11.7632    9.9892 C   0  0  0  0  0  0  0  0  0  0  0  0
    3.7815  -11.8804   10.9132 C   0  0  0  0  0  0  0  0  0  0  0  0
    4.8877  -11.1921   12.5406 C   0  0  0  0  0  0  0  0  0  0  0  0
    3.9135  -10.3428   13.1857 C   0  0  0  0  0  0  0  0  0  0  0  0
    3.0385  -10.1275   11.6513 O   0  0  0  0  0  0  0  0  0  0  0  0
    1.8337  -10.7621   11.1955 C   0  0  0  0  0  0  0  0  0  0  0  0
   -1.2000  -19.1245   11.9646 H   0  0  0  0  0  0  0  0  0  0  0  0
   -2.9691  -19.2462   11.4688 H   0  0  0  0  0  0  0  0  0  0  0  0
   -2.6587  -17.3746    9.8890 H   0  0  0  0  0  0  0  0  0  0  0  0
    0.3305  -17.3802   10.9329 H   0  0  0  0  0  0  0  0  0  0  0  0
   -0.6188  -15.9966   10.5433 H   0  0  0  0  0  0  0  0  0  0  0  0
    0.5641  -18.9059    9.6180 H   0  0  0  0  0  0  0  0  0  0  0  0
    0.5759  -18.6787    7.9362 H   0  0  0  0  0  0  0  0  0  0  0  0
   -0.9949  -18.7695    8.5944 H   0  0  0  0  0  0  0  0  0  0  0  0
    1.8760  -12.5030    8.4327 H   0  0  0  0  0  0  0  0  0  0  0  0
    0.7907  -11.7562    8.9038 H   0  0  0  0  0  0  0  0  0  0  0  0
    0.0973  -13.0421   11.3836 H   0  0  0  0  0  0  0  0  0  0  0  0
   -0.6414  -13.1457    9.7675 H   0  0  0  0  0  0  0  0  0  0  0  0
   -0.4873  -11.5655   10.5428 H   0  0  0  0  0  0  0  0  0  0  0  0
    2.6926  -11.0795    9.0306 H   0  0  0  0  0  0  0  0  0  0  0  0
    4.0956  -12.9043   10.6342 H   0  0  0  0  0  0  0  0  0  0  0  0
    3.9646  -10.9588   10.2693 H   0  0  0  0  0  0  0  0  0  0  0  0
    5.8626  -10.9157   12.4973 H   0  0  0  0  0  0  0  0  0  0  0  0
    5.1473  -11.9767   13.3191 H   0  0  0  0  0  0  0  0  0  0  0  0
    3.3526  -10.7359   13.9967 H   0  0  0  0  0  0  0  0  0  0  0  0
    4.2977   -9.3635   13.5027 H   0  0  0  0  0  0  0  0  0  0  0  0
    1.1650  -11.1561   11.9492 H   0  0  0  0  0  0  0  0  0  0  0  0
    1.3705   -9.9619   10.6316 H   0  0  0  0  0  0  0  0  0  0  0  0
  1  2  2  0
  2  3  1  0
  3  4  1  0
  4  5  1  0
  4  6  1  0
  6  7  2  0
  6  8  1  0
  8  9  2  0
  8 10  1  0
 10 11  1  0
 11 12  1  0
 10 13  1  0
 13 14  1  0
 14 15  1  0
 15 16  1  0
 16 17  1  0
 17 18  1  0
 18 13  1  0
  1 19  1  0
  1 20  1  0
  2 21  1  0
  3 22  1  0
  3 23  1  0
  5 24  1  0
  5 25  1  0
  5 26  1  0
 11 27  1  0
 11 28  1  0
 12 29  1  0
 12 30  1  0
 12 31  1  0
 13 32  1  0
 14 33  1  0
 14 34  1  0
 15 35  1  0
 15 36  1  0
 16 37  1  0
 16 38  1  0
 18 39  1  0
 18 40  1  0
M  END
>  <Energy>  (236) 
1145.955996442367

>  <compound_id>  (236) 
61199

>  <target_id>  (236) 
1

>  <reference_id>  (236) 
111

>  <inspiration_ids>  (236) 
[112, 111]

>  <energy_score>  (236) 
1041.4411243070836

>  <distance_score>  (236) 
14.274783588942386

>  <path>  (236) 
/opt/xchem-fragalysis-2/maxwin/BulkDock/SCRATCH/511024/C61199-P111/C61199-P111.minimised.mol

>  <scratch_subdir>  (236) 
/opt/xchem-fragalysis-2/maxwin/BulkDock/SCRATCH/511024/C61199-P111

>  <fragmenstein_runtime>  (236) 
23.530532836914062

>  <fragmenstein_outcome>  (236) 
too moved

>  <fragmenstein_mode>  (236) 
expansion

>  <fragmenstein_error>  (236) 


$$$$
C61203-P112
     RDKit          3D

 43 43  0  0  0  0  0  0  0  0999 V2000
   -1.3780  -19.2706   11.4724 C   0  0  0  0  0  0  0  0  0  0  0  0
   -1.0737  -18.2959   10.5853 C   0  0  0  0  0  0  0  0  0  0  0  0
   -1.1782  -18.5971    9.1074 C   0  0  0  0  0  0  0  0  0  0  0  0
   -0.5166  -16.8214   10.8905 C   0  0  0  0  0  0  0  0  0  0  0  0
   -1.3333  -15.6108   11.7297 N   0  0  0  0  0  0  0  0  0  0  0  0
   -2.5040  -16.4283   11.2982 C   0  0  0  0  0  0  0  0  0  0  0  0
   -0.8643  -14.2821   11.3189 C   0  0  0  0  0  0  0  0  0  0  0  0
   -1.3576  -13.7155   10.4710 O   0  0  0  0  0  0  0  0  0  0  0  0
    0.3369  -13.2844   12.0602 C   0  0  0  0  0  0  0  0  0  0  0  0
    0.6597  -13.7486   13.0844 O   0  0  0  0  0  0  0  0  0  0  0  0
    1.0189  -11.8094   11.4348 N   0  0  0  0  0  0  0  0  0  0  0  0
    2.3927  -12.1416   10.4567 C   0  0  0  0  0  0  0  0  0  0  0  0
    3.0256  -11.5801    9.1604 C   0  0  0  0  0  0  0  0  0  0  0  0
    2.1550  -10.6662   12.1634 C   0  0  0  0  0  0  0  0  0  0  0  0
    3.4120  -10.3900   13.7742 C   0  0  0  0  0  0  0  0  0  0  0  0
    4.6838   -9.7883   13.6039 C   0  0  0  0  0  0  0  0  0  0  0  0
    4.3042   -8.2509   13.3556 C   0  0  0  0  0  0  0  0  0  0  0  0
    3.4874   -8.2892   11.7685 O   0  0  0  0  0  0  0  0  0  0  0  0
    2.9914   -9.9046   11.2848 C   0  0  0  0  0  0  0  0  0  0  0  0
   -1.7279  -20.2485   11.1534 H   0  0  0  0  0  0  0  0  0  0  0  0
   -1.2454  -19.1347   12.5389 H   0  0  0  0  0  0  0  0  0  0  0  0
   -1.8704  -17.9062    8.6167 H   0  0  0  0  0  0  0  0  0  0  0  0
   -0.1954  -18.4969    8.6348 H   0  0  0  0  0  0  0  0  0  0  0  0
   -1.5363  -19.6141    8.9145 H   0  0  0  0  0  0  0  0  0  0  0  0
   -0.0826  -16.4035    9.9935 H   0  0  0  0  0  0  0  0  0  0  0  0
    0.4110  -16.9656   11.4543 H   0  0  0  0  0  0  0  0  0  0  0  0
   -3.3405  -15.7619   11.5675 H   0  0  0  0  0  0  0  0  0  0  0  0
   -2.7501  -17.2929   11.9193 H   0  0  0  0  0  0  0  0  0  0  0  0
   -2.6640  -16.4775   10.2132 H   0  0  0  0  0  0  0  0  0  0  0  0
    1.6856  -12.9383   10.5578 H   0  0  0  0  0  0  0  0  0  0  0  0
    2.3602  -12.9462    9.6559 H   0  0  0  0  0  0  0  0  0  0  0  0
    3.6926  -12.3806    8.8402 H   0  0  0  0  0  0  0  0  0  0  0  0
    2.3705  -11.2985    8.3328 H   0  0  0  0  0  0  0  0  0  0  0  0
    3.8381  -10.8989    9.2081 H   0  0  0  0  0  0  0  0  0  0  0  0
    1.1505  -10.2166   12.1452 H   0  0  0  0  0  0  0  0  0  0  0  0
    3.8580  -11.0442   14.6052 H   0  0  0  0  0  0  0  0  0  0  0  0
    3.0322   -9.7958   14.5465 H   0  0  0  0  0  0  0  0  0  0  0  0
    5.2495  -10.4947   12.9802 H   0  0  0  0  0  0  0  0  0  0  0  0
    5.3211   -9.9996   14.4005 H   0  0  0  0  0  0  0  0  0  0  0  0
    3.7127   -7.7553   14.1063 H   0  0  0  0  0  0  0  0  0  0  0  0
    5.0712   -7.4426   13.3531 H   0  0  0  0  0  0  0  0  0  0  0  0
    2.1027   -9.9207   10.6298 H   0  0  0  0  0  0  0  0  0  0  0  0
    3.8161  -10.3899   10.8191 H   0  0  0  0  0  0  0  0  0  0  0  0
  1  2  2  0
  2  3  1  0
  2  4  1  0
  4  5  1  0
  5  6  1  0
  5  7  1  0
  7  8  2  0
  7  9  1  0
  9 10  2  0
  9 11  1  0
 11 12  1  0
 12 13  1  0
 11 14  1  0
 14 15  1  0
 15 16  1  0
 16 17  1  0
 17 18  1  0
 18 19  1  0
 19 14  1  0
  1 20  1  0
  1 21  1  0
  3 22  1  0
  3 23  1  0
  3 24  1  0
  4 25  1  0
  4 26  1  0
  6 27  1  0
  6 28  1  0
  6 29  1  0
 12 30  1  0
 12 31  1  0
 13 32  1  0
 13 33  1  0
 13 34  1  0
 14 35  1  0
 15 36  1  0
 15 37  1  0
 16 38  1  0
 16 39  1  0
 17 40  1  0
 17 41  1  0
 19 42  1  0
 19 43  1  0
M  END
>  <Energy>  (237) 
782.65405223808602

>  <compound_id>  (237) 
61203

>  <target_id>  (237) 
1

>  <reference_id>  (237) 
112

>  <inspiration_ids>  (237) 
[112, 111]

>  <energy_score>  (237) 
673.6929386364317

>  <distance_score>  (237) 
13.285462920872549

>  <path>  (237) 
/opt/xchem-fragalysis-2/maxwin/BulkDock/SCRATCH/511024/C61203-P112/C61203-P112.minimised.mol

>  <scratch_subdir>  (237) 
/opt/xchem-fragalysis-2/maxwin/BulkDock/SCRATCH/511024/C61203-P112

>  <fragmenstein_runtime>  (237) 
15.555155038833618

>  <fragmenstein_outcome>  (237) 
too moved

>  <fragmenstein_mode>  (237) 
expansion

>  <fragmenstein_error>  (237) 


$$$$
C61203-P111
     RDKit          3D

 43 43  0  0  0  0  0  0  0  0999 V2000
   -3.6760  -23.3625   10.2497 C   0  0  0  0  0  0  0  0  0  0  0  0
   -2.7582  -22.3996   10.0269 C   0  0  0  0  0  0  0  0  0  0  0  0
   -2.5815  -21.2256   10.9520 C   0  0  0  0  0  0  0  0  0  0  0  0
   -1.8542  -22.3787    8.7867 C   0  0  0  0  0  0  0  0  0  0  0  0
   -0.3207  -22.3211    9.0012 N   0  0  0  0  0  0  0  0  0  0  0  0
   -0.5393  -23.7343    9.4099 C   0  0  0  0  0  0  0  0  0  0  0  0
    0.3179  -21.7728    7.8439 C   0  0  0  0  0  0  0  0  0  0  0  0
    0.7601  -22.3139    6.8639 O   0  0  0  0  0  0  0  0  0  0  0  0
    0.5587  -20.2297    7.9418 C   0  0  0  0  0  0  0  0  0  0  0  0
   -0.3624  -19.4977    7.6963 O   0  0  0  0  0  0  0  0  0  0  0  0
    1.9395  -19.9316    8.2531 N   0  0  0  0  0  0  0  0  0  0  0  0
    2.7745  -19.9044    6.9642 C   0  0  0  0  0  0  0  0  0  0  0  0
    3.7254  -21.1142    6.9558 C   0  0  0  0  0  0  0  0  0  0  0  0
    2.6410  -18.5941    8.4829 C   0  0  0  0  0  0  0  0  0  0  0  0
    4.1320  -18.5611    8.9538 C   0  0  0  0  0  0  0  0  0  0  0  0
    4.4845  -17.2349    9.6231 C   0  0  0  0  0  0  0  0  0  0  0  0
    3.5349  -16.1218    9.2223 C   0  0  0  0  0  0  0  0  0  0  0  0
    3.1776  -16.2330    7.8573 O   0  0  0  0  0  0  0  0  0  0  0  0
    2.2102  -17.2882    7.7046 C   0  0  0  0  0  0  0  0  0  0  0  0
   -3.8190  -24.1864    9.5613 H   0  0  0  0  0  0  0  0  0  0  0  0
   -4.2972  -23.3367   11.1366 H   0  0  0  0  0  0  0  0  0  0  0  0
   -3.3548  -21.1779   11.7197 H   0  0  0  0  0  0  0  0  0  0  0  0
   -2.6306  -20.2875   10.3893 H   0  0  0  0  0  0  0  0  0  0  0  0
   -1.6094  -21.2780   11.4521 H   0  0  0  0  0  0  0  0  0  0  0  0
   -2.1625  -23.0791    7.9899 H   0  0  0  0  0  0  0  0  0  0  0  0
   -2.0882  -21.4149    8.3058 H   0  0  0  0  0  0  0  0  0  0  0  0
    0.4920  -24.1033    9.5269 H   0  0  0  0  0  0  0  0  0  0  0  0
   -0.9218  -24.4224    8.6411 H   0  0  0  0  0  0  0  0  0  0  0  0
   -0.9457  -23.8687   10.4184 H   0  0  0  0  0  0  0  0  0  0  0  0
    2.0701  -20.0616    6.1327 H   0  0  0  0  0  0  0  0  0  0  0  0
    3.3665  -19.0449    6.6172 H   0  0  0  0  0  0  0  0  0  0  0  0
    4.4857  -21.0320    7.7375 H   0  0  0  0  0  0  0  0  0  0  0  0
    3.1960  -22.0554    7.1206 H   0  0  0  0  0  0  0  0  0  0  0  0
    4.2373  -21.1805    5.9905 H   0  0  0  0  0  0  0  0  0  0  0  0
    2.1408  -18.3948    9.4485 H   0  0  0  0  0  0  0  0  0  0  0  0
    4.3294  -19.3900    9.6441 H   0  0  0  0  0  0  0  0  0  0  0  0
    4.8133  -18.6971    8.1063 H   0  0  0  0  0  0  0  0  0  0  0  0
    4.4429  -17.3716   10.7057 H   0  0  0  0  0  0  0  0  0  0  0  0
    5.5132  -16.9717    9.3564 H   0  0  0  0  0  0  0  0  0  0  0  0
    3.9917  -15.1471    9.3748 H   0  0  0  0  0  0  0  0  0  0  0  0
    2.6125  -16.1575    9.8106 H   0  0  0  0  0  0  0  0  0  0  0  0
    1.2384  -16.9367    8.0739 H   0  0  0  0  0  0  0  0  0  0  0  0
    2.0770  -17.4498    6.6307 H   0  0  0  0  0  0  0  0  0  0  0  0
  1  2  2  0
  2  3  1  0
  2  4  1  0
  4  5  1  0
  5  6  1  0
  5  7  1  0
  7  8  2  0
  7  9  1  0
  9 10  2  0
  9 11  1  0
 11 12  1  0
 12 13  1  0
 11 14  1  0
 14 15  1  0
 15 16  1  0
 16 17  1  0
 17 18  1  0
 18 19  1  0
 19 14  1  0
  1 20  1  0
  1 21  1  0
  3 22  1  0
  3 23  1  0
  3 24  1  0
  4 25  1  0
  4 26  1  0
  6 27  1  0
  6 28  1  0
  6 29  1  0
 12 30  1  0
 12 31  1  0
 13 32  1  0
 13 33  1  0
 13 34  1  0
 14 35  1  0
 15 36  1  0
 15 37  1  0
 16 38  1  0
 16 39  1  0
 17 40  1  0
 17 41  1  0
 19 42  1  0
 19 43  1  0
M  END
>  <Energy>  (238) 
230.07937992993791

>  <compound_id>  (238) 
61203

>  <target_id>  (238) 
1

>  <reference_id>  (238) 
111

>  <inspiration_ids>  (238) 
[112, 111]

>  <energy_score>  (238) 
121.11826632827751

>  <distance_score>  (238) 
15.04489278750914

>  <path>  (238) 
/opt/xchem-fragalysis-2/maxwin/BulkDock/SCRATCH/511024/C61203-P111/C61203-P111.minimised.mol

>  <scratch_subdir>  (238) 
/opt/xchem-fragalysis-2/maxwin/BulkDock/SCRATCH/511024/C61203-P111

>  <fragmenstein_runtime>  (238) 
22.344951391220093

>  <fragmenstein_outcome>  (238) 
too moved

>  <fragmenstein_mode>  (238) 
expansion

>  <fragmenstein_error>  (238) 


$$$$
C61209-P112
     RDKit          3D

 36 36  0  0  0  0  0  0  0  0999 V2000
   -5.2292  -14.8377   18.0636 C   0  0  0  0  0  0  0  0  0  0  0  0
   -4.0330  -15.2173   17.1728 C   0  0  0  0  0  0  0  0  0  0  0  0
   -2.6249  -14.5803   17.8850 C   0  0  0  0  0  0  0  0  0  0  0  0
   -1.3246  -14.0272   16.7770 N   0  0  0  0  0  0  0  0  0  0  0  0
    0.3850  -13.7080   16.9620 S   0  0  0  0  0  0  0  0  0  0  0  0
    1.3047  -14.6150   17.5958 O   0  0  0  0  0  0  0  0  0  0  0  0
   -0.4746  -12.7640   17.7015 O   0  0  0  0  0  0  0  0  0  0  0  0
    1.9150  -12.3786   15.6608 C   0  0  0  0  0  0  0  0  0  0  0  0
    3.4944  -10.9525   15.8041 C   0  0  0  0  0  0  0  0  0  0  0  0
    4.1150  -10.0039   14.1863 C   0  0  0  0  0  0  0  0  0  0  0  0
    4.0853   -8.0000   14.0540 C   0  0  0  0  0  0  0  0  0  0  0  0
    3.3627   -6.9973   15.5794 C   0  0  0  0  0  0  0  0  0  0  0  0
    2.6481   -8.0206   16.8534 C   0  0  0  0  0  0  0  0  0  0  0  0
    3.2192   -9.7252   17.0653 O   0  0  0  0  0  0  0  0  0  0  0  0
   -4.2435  -16.7446   16.8373 C   0  0  0  0  0  0  0  0  0  0  0  0
   -5.5619  -17.1067   16.8864 F   0  0  0  0  0  0  0  0  0  0  0  0
   -3.9141  -16.9915   15.5388 F   0  0  0  0  0  0  0  0  0  0  0  0
   -5.2021  -13.7725   18.3158 H   0  0  0  0  0  0  0  0  0  0  0  0
   -6.1837  -15.0153   17.5572 H   0  0  0  0  0  0  0  0  0  0  0  0
   -5.2153  -15.4056   18.9997 H   0  0  0  0  0  0  0  0  0  0  0  0
   -4.1286  -14.6964   16.2213 H   0  0  0  0  0  0  0  0  0  0  0  0
   -2.9170  -13.6303   18.3543 H   0  0  0  0  0  0  0  0  0  0  0  0
   -2.2259  -15.2172   18.6774 H   0  0  0  0  0  0  0  0  0  0  0  0
   -1.6662  -13.0594   16.8136 H   0  0  0  0  0  0  0  0  0  0  0  0
    2.5692  -11.9497   16.5564 H   0  0  0  0  0  0  0  0  0  0  0  0
    1.7263  -12.3902   14.5865 H   0  0  0  0  0  0  0  0  0  0  0  0
    4.2457  -11.6127   16.1036 H   0  0  0  0  0  0  0  0  0  0  0  0
    3.5543  -10.2705   13.3517 H   0  0  0  0  0  0  0  0  0  0  0  0
    5.1359  -10.3609   14.0128 H   0  0  0  0  0  0  0  0  0  0  0  0
    5.1154   -7.5807   13.9062 H   0  0  0  0  0  0  0  0  0  0  0  0
    3.8754   -7.6143   13.0462 H   0  0  0  0  0  0  0  0  0  0  0  0
    4.1377   -6.3902   16.1193 H   0  0  0  0  0  0  0  0  0  0  0  0
    2.8588   -6.0357   15.3528 H   0  0  0  0  0  0  0  0  0  0  0  0
    2.9302   -7.5858   17.8211 H   0  0  0  0  0  0  0  0  0  0  0  0
    1.5454   -7.9735   16.8957 H   0  0  0  0  0  0  0  0  0  0  0  0
   -3.6810  -17.4027   17.5047 H   0  0  0  0  0  0  0  0  0  0  0  0
  1  2  1  0
  2  3  1  0
  3  4  1  0
  4  5  1  0
  5  6  2  0
  5  7  2  0
  5  8  1  0
  8  9  1  0
  9 10  1  0
 10 11  1  0
 11 12  1  0
 12 13  1  0
 13 14  1  0
  2 15  1  0
 15 16  1  0
 15 17  1  0
 14  9  1  0
  1 18  1  0
  1 19  1  0
  1 20  1  0
  2 21  1  0
  3 22  1  0
  3 23  1  0
  4 24  1  0
  8 25  1  0
  8 26  1  0
  9 27  1  0
 10 28  1  0
 10 29  1  0
 11 30  1  0
 11 31  1  0
 12 32  1  0
 12 33  1  0
 13 34  1  0
 13 35  1  0
 15 36  1  0
M  END
>  <Energy>  (239) 
653.39178246019924

>  <compound_id>  (239) 
61209

>  <target_id>  (239) 
1

>  <reference_id>  (239) 
112

>  <inspiration_ids>  (239) 
[112, 111]

>  <energy_score>  (239) 
599.6334325574343

>  <distance_score>  (239) 
13.250122277871334

>  <path>  (239) 
/opt/xchem-fragalysis-2/maxwin/BulkDock/SCRATCH/511024/C61209-P112/C61209-P112.minimised.mol

>  <scratch_subdir>  (239) 
/opt/xchem-fragalysis-2/maxwin/BulkDock/SCRATCH/511024/C61209-P112

>  <fragmenstein_runtime>  (239) 
13.91885256767273

>  <fragmenstein_outcome>  (239) 
too moved

>  <fragmenstein_mode>  (239) 
expansion

>  <fragmenstein_error>  (239) 


$$$$
C61209-P111
     RDKit          3D

 36 36  0  0  0  0  0  0  0  0999 V2000
   -4.4887  -17.4439   15.7166 C   0  0  0  0  0  0  0  0  0  0  0  0
   -4.1304  -16.8220   14.3657 C   0  0  0  0  0  0  0  0  0  0  0  0
   -3.9458  -15.2742   14.5323 C   0  0  0  0  0  0  0  0  0  0  0  0
   -2.3216  -14.8142   15.0370 N   0  0  0  0  0  0  0  0  0  0  0  0
   -0.5425  -13.7421   13.9017 S   0  0  0  0  0  0  0  0  0  0  0  0
   -0.1056  -14.6543   12.8571 O   0  0  0  0  0  0  0  0  0  0  0  0
   -1.2441  -14.1791   15.5499 O   0  0  0  0  0  0  0  0  0  0  0  0
    1.2828  -12.0519   14.0958 C   0  0  0  0  0  0  0  0  0  0  0  0
    3.2129  -10.8450   13.9530 C   0  0  0  0  0  0  0  0  0  0  0  0
    4.2103   -9.0373   13.7481 C   0  0  0  0  0  0  0  0  0  0  0  0
    6.1346   -8.3395   13.9833 C   0  0  0  0  0  0  0  0  0  0  0  0
    7.1114   -9.8787   13.4687 C   0  0  0  0  0  0  0  0  0  0  0  0
    5.9767  -11.2258   13.1439 C   0  0  0  0  0  0  0  0  0  0  0  0
    4.8129  -11.5614   14.0254 O   0  0  0  0  0  0  0  0  0  0  0  0
   -5.1848  -17.1549   13.2916 C   0  0  0  0  0  0  0  0  0  0  0  0
   -5.2321  -18.4778   13.0186 F   0  0  0  0  0  0  0  0  0  0  0  0
   -6.4289  -16.8166   13.7185 F   0  0  0  0  0  0  0  0  0  0  0  0
   -5.5677  -17.4876   15.8851 H   0  0  0  0  0  0  0  0  0  0  0  0
   -4.0510  -16.8748   16.5447 H   0  0  0  0  0  0  0  0  0  0  0  0
   -4.0488  -18.4390   15.7889 H   0  0  0  0  0  0  0  0  0  0  0  0
   -3.1846  -17.2733   14.0477 H   0  0  0  0  0  0  0  0  0  0  0  0
   -4.2068  -14.6913   13.6420 H   0  0  0  0  0  0  0  0  0  0  0  0
   -4.5655  -14.9322   15.3676 H   0  0  0  0  0  0  0  0  0  0  0  0
   -2.2228  -14.7407   16.0773 H   0  0  0  0  0  0  0  0  0  0  0  0
    1.6458  -12.7769   14.8144 H   0  0  0  0  0  0  0  0  0  0  0  0
    0.9015  -12.0029   13.0370 H   0  0  0  0  0  0  0  0  0  0  0  0
    3.5024  -10.8465   15.0324 H   0  0  0  0  0  0  0  0  0  0  0  0
    3.7094   -8.2001   14.2573 H   0  0  0  0  0  0  0  0  0  0  0  0
    3.9822   -8.5622   12.7722 H   0  0  0  0  0  0  0  0  0  0  0  0
    6.2296   -7.5893   13.1841 H   0  0  0  0  0  0  0  0  0  0  0  0
    6.6033   -7.8316   14.8422 H   0  0  0  0  0  0  0  0  0  0  0  0
    7.7449   -9.6521   12.6054 H   0  0  0  0  0  0  0  0  0  0  0  0
    7.8934  -10.1274   14.2027 H   0  0  0  0  0  0  0  0  0  0  0  0
    5.6227  -11.2868   12.1139 H   0  0  0  0  0  0  0  0  0  0  0  0
    6.6157  -12.1206   13.1108 H   0  0  0  0  0  0  0  0  0  0  0  0
   -4.9846  -16.6248   12.3560 H   0  0  0  0  0  0  0  0  0  0  0  0
  1  2  1  0
  2  3  1  0
  3  4  1  0
  4  5  1  0
  5  6  2  0
  5  7  2  0
  5  8  1  0
  8  9  1  0
  9 10  1  0
 10 11  1  0
 11 12  1  0
 12 13  1  0
 13 14  1  0
  2 15  1  0
 15 16  1  0
 15 17  1  0
 14  9  1  0
  1 18  1  0
  1 19  1  0
  1 20  1  0
  2 21  1  0
  3 22  1  0
  3 23  1  0
  4 24  1  0
  8 25  1  0
  8 26  1  0
  9 27  1  0
 10 28  1  0
 10 29  1  0
 11 30  1  0
 11 31  1  0
 12 32  1  0
 12 33  1  0
 13 34  1  0
 13 35  1  0
 15 36  1  0
M  END
>  <Energy>  (240) 
1132.7775537414079

>  <compound_id>  (240) 
61209

>  <target_id>  (240) 
1

>  <reference_id>  (240) 
111

>  <inspiration_ids>  (240) 
[112, 111]

>  <energy_score>  (240) 
1079.0192038386424

>  <distance_score>  (240) 
11.960154109984709

>  <path>  (240) 
/opt/xchem-fragalysis-2/maxwin/BulkDock/SCRATCH/511024/C61209-P111/C61209-P111.minimised.mol

>  <scratch_subdir>  (240) 
/opt/xchem-fragalysis-2/maxwin/BulkDock/SCRATCH/511024/C61209-P111

>  <fragmenstein_runtime>  (240) 
12.627303123474121

>  <fragmenstein_outcome>  (240) 
too moved

>  <fragmenstein_mode>  (240) 
expansion

>  <fragmenstein_error>  (240) 


$$$$
C61213-P112
     RDKit          3D

 45 45  0  0  0  0  0  0  0  0999 V2000
   -1.2367  -23.8363   13.0405 C   0  0  0  0  0  0  0  0  0  0  0  0
   -1.0591  -22.4923   12.3431 C   0  0  0  0  0  0  0  0  0  0  0  0
    0.3949  -21.9808   12.4644 C   0  0  0  0  0  0  0  0  0  0  0  0
    0.9274  -20.8834   11.4757 C   0  0  0  0  0  0  0  0  0  0  0  0
    1.0453  -19.3875   11.9900 C   0  0  0  0  0  0  0  0  0  0  0  0
    1.6245  -18.3187   10.9733 C   0  0  0  0  0  0  0  0  0  0  0  0
    0.9416  -16.6054   10.4001 S   0  0  0  0  0  0  0  0  0  0  0  0
    1.6860  -16.3258    9.1929 O   0  0  0  0  0  0  0  0  0  0  0  0
   -0.4832  -16.6628   10.3301 O   0  0  0  0  0  0  0  0  0  0  0  0
    1.0684  -15.2164   11.3784 N   0  0  0  0  0  0  0  0  0  0  0  0
    1.2575  -13.3285   11.2815 C   0  0  0  0  0  0  0  0  0  0  0  0
    2.6597  -12.1440   10.3781 C   0  0  0  0  0  0  0  0  0  0  0  0
    2.6755  -10.6930   10.8979 C   0  0  0  0  0  0  0  0  0  0  0  0
    4.1831   -9.8767   11.1534 C   0  0  0  0  0  0  0  0  0  0  0  0
    5.3201  -10.2791   10.2371 C   0  0  0  0  0  0  0  0  0  0  0  0
    4.8544  -11.2514    9.3186 O   0  0  0  0  0  0  0  0  0  0  0  0
    4.2782  -12.3667   10.0129 C   0  0  0  0  0  0  0  0  0  0  0  0
    0.0676  -12.7139   11.9168 C   0  0  0  0  0  0  0  0  0  0  0  0
   -0.7476  -13.7720   12.1173 F   0  0  0  0  0  0  0  0  0  0  0  0
   -0.4962  -11.7231   11.2634 F   0  0  0  0  0  0  0  0  0  0  0  0
    0.3893  -12.2448   13.1108 F   0  0  0  0  0  0  0  0  0  0  0  0
   -0.9383  -23.7872   14.0912 H   0  0  0  0  0  0  0  0  0  0  0  0
   -0.6327  -24.6090   12.5538 H   0  0  0  0  0  0  0  0  0  0  0  0
   -2.2839  -24.1510   12.9957 H   0  0  0  0  0  0  0  0  0  0  0  0
   -1.7488  -21.7724   12.7930 H   0  0  0  0  0  0  0  0  0  0  0  0
   -1.3210  -22.6261   11.2881 H   0  0  0  0  0  0  0  0  0  0  0  0
    0.6054  -21.6747   13.4913 H   0  0  0  0  0  0  0  0  0  0  0  0
    1.0409  -22.8541   12.2928 H   0  0  0  0  0  0  0  0  0  0  0  0
    1.9617  -21.1719   11.2365 H   0  0  0  0  0  0  0  0  0  0  0  0
    0.4075  -20.9429   10.5155 H   0  0  0  0  0  0  0  0  0  0  0  0
    0.1176  -19.1206   12.4319 H   0  0  0  0  0  0  0  0  0  0  0  0
    1.7475  -19.4162   12.8345 H   0  0  0  0  0  0  0  0  0  0  0  0
    2.6751  -18.1149   11.2161 H   0  0  0  0  0  0  0  0  0  0  0  0
    1.6632  -18.8354   10.0025 H   0  0  0  0  0  0  0  0  0  0  0  0
    0.1478  -15.2365   11.8503 H   0  0  0  0  0  0  0  0  0  0  0  0
    1.6236  -13.6337   12.2651 H   0  0  0  0  0  0  0  0  0  0  0  0
    2.4852  -12.2289    9.2961 H   0  0  0  0  0  0  0  0  0  0  0  0
    2.1186  -10.6454   11.8135 H   0  0  0  0  0  0  0  0  0  0  0  0
    1.8716  -10.2270   10.3516 H   0  0  0  0  0  0  0  0  0  0  0  0
    4.1225   -8.7807   11.1580 H   0  0  0  0  0  0  0  0  0  0  0  0
    4.5547   -9.9578   12.1847 H   0  0  0  0  0  0  0  0  0  0  0  0
    6.1703  -10.6789   10.8027 H   0  0  0  0  0  0  0  0  0  0  0  0
    5.6930   -9.4203    9.6695 H   0  0  0  0  0  0  0  0  0  0  0  0
    4.3989  -13.2054    9.3294 H   0  0  0  0  0  0  0  0  0  0  0  0
    4.9369  -12.5522   10.8566 H   0  0  0  0  0  0  0  0  0  0  0  0
  1  2  1  0
  2  3  1  0
  3  4  1  0
  4  5  1  0
  5  6  1  0
  6  7  1  0
  7  8  2  0
  7  9  2  0
  7 10  1  0
 10 11  1  0
 11 12  1  0
 12 13  1  0
 13 14  1  0
 14 15  1  0
 15 16  1  0
 16 17  1  0
 11 18  1  0
 18 19  1  0
 18 20  1  0
 18 21  1  0
 17 12  1  0
  1 22  1  0
  1 23  1  0
  1 24  1  0
  2 25  1  0
  2 26  1  0
  3 27  1  0
  3 28  1  0
  4 29  1  0
  4 30  1  0
  5 31  1  0
  5 32  1  0
  6 33  1  0
  6 34  1  0
 10 35  1  0
 11 36  1  0
 12 37  1  0
 13 38  1  0
 13 39  1  0
 14 40  1  0
 14 41  1  0
 15 42  1  0
 15 43  1  0
 17 44  1  0
 17 45  1  0
M  END
>  <Energy>  (241) 
261.71083880624758

>  <compound_id>  (241) 
61213

>  <target_id>  (241) 
1

>  <reference_id>  (241) 
112

>  <inspiration_ids>  (241) 
[112, 111]

>  <energy_score>  (241) 
209.6949659912707

>  <distance_score>  (241) 
13.50593696037861

>  <path>  (241) 
/opt/xchem-fragalysis-2/maxwin/BulkDock/SCRATCH/511024/C61213-P112/C61213-P112.minimised.mol

>  <scratch_subdir>  (241) 
/opt/xchem-fragalysis-2/maxwin/BulkDock/SCRATCH/511024/C61213-P112

>  <fragmenstein_runtime>  (241) 
25.12878966331482

>  <fragmenstein_outcome>  (241) 
too moved

>  <fragmenstein_mode>  (241) 
expansion

>  <fragmenstein_error>  (241) 


$$$$
C61213-P111
     RDKit          3D

 45 45  0  0  0  0  0  0  0  0999 V2000
   -8.8337  -18.5800   10.8282 C   0  0  0  0  0  0  0  0  0  0  0  0
   -8.4596  -17.1366   10.5914 C   0  0  0  0  0  0  0  0  0  0  0  0
   -7.6755  -16.5611   11.7715 C   0  0  0  0  0  0  0  0  0  0  0  0
   -6.9053  -15.2495   11.4040 C   0  0  0  0  0  0  0  0  0  0  0  0
   -5.6161  -14.9840   12.3217 C   0  0  0  0  0  0  0  0  0  0  0  0
   -3.6279  -14.5884   12.1906 C   0  0  0  0  0  0  0  0  0  0  0  0
   -1.7185  -14.8990   10.9790 S   0  0  0  0  0  0  0  0  0  0  0  0
   -0.7141  -15.9499   11.1726 O   0  0  0  0  0  0  0  0  0  0  0  0
   -2.3966  -15.0877    9.7158 O   0  0  0  0  0  0  0  0  0  0  0  0
   -0.3244  -13.7881   11.1436 N   0  0  0  0  0  0  0  0  0  0  0  0
    0.5673  -12.2249   11.5860 C   0  0  0  0  0  0  0  0  0  0  0  0
    2.3976  -11.5889   10.9041 C   0  0  0  0  0  0  0  0  0  0  0  0
    3.7634  -10.5367   11.4839 C   0  0  0  0  0  0  0  0  0  0  0  0
    4.7411   -9.5975   10.7719 C   0  0  0  0  0  0  0  0  0  0  0  0
    5.2771  -10.3430    9.5772 C   0  0  0  0  0  0  0  0  0  0  0  0
    4.1790  -10.8992    8.8773 O   0  0  0  0  0  0  0  0  0  0  0  0
    3.2952  -11.8390    9.4976 C   0  0  0  0  0  0  0  0  0  0  0  0
    0.3937  -12.8707   13.0401 C   0  0  0  0  0  0  0  0  0  0  0  0
    1.0763  -12.3200   14.0125 F   0  0  0  0  0  0  0  0  0  0  0  0
    0.8422  -14.1552   12.9370 F   0  0  0  0  0  0  0  0  0  0  0  0
   -0.8238  -13.0600   13.4653 F   0  0  0  0  0  0  0  0  0  0  0  0
   -9.5070  -18.6668   11.6774 H   0  0  0  0  0  0  0  0  0  0  0  0
   -9.3164  -18.9997    9.9422 H   0  0  0  0  0  0  0  0  0  0  0  0
   -7.9558  -19.1810   11.0628 H   0  0  0  0  0  0  0  0  0  0  0  0
   -9.3579  -16.5353   10.4134 H   0  0  0  0  0  0  0  0  0  0  0  0
   -7.8561  -17.0863    9.6786 H   0  0  0  0  0  0  0  0  0  0  0  0
   -8.3624  -16.3512   12.6012 H   0  0  0  0  0  0  0  0  0  0  0  0
   -6.9824  -17.3152   12.1458 H   0  0  0  0  0  0  0  0  0  0  0  0
   -7.6226  -14.4458   11.6349 H   0  0  0  0  0  0  0  0  0  0  0  0
   -6.7464  -15.1152   10.3332 H   0  0  0  0  0  0  0  0  0  0  0  0
   -5.7637  -15.7929   13.0484 H   0  0  0  0  0  0  0  0  0  0  0  0
   -5.9659  -14.0323   12.7191 H   0  0  0  0  0  0  0  0  0  0  0  0
   -3.5846  -15.2907   11.3639 H   0  0  0  0  0  0  0  0  0  0  0  0
   -3.4626  -14.2739   13.1650 H   0  0  0  0  0  0  0  0  0  0  0  0
    0.3108  -14.5172   11.5391 H   0  0  0  0  0  0  0  0  0  0  0  0
   -0.1359  -11.4145   11.4456 H   0  0  0  0  0  0  0  0  0  0  0  0
    2.7270  -12.5998   11.0247 H   0  0  0  0  0  0  0  0  0  0  0  0
    4.5718  -11.3060   11.4519 H   0  0  0  0  0  0  0  0  0  0  0  0
    3.7937  -10.2936   12.5412 H   0  0  0  0  0  0  0  0  0  0  0  0
    4.3421   -8.6128   10.5513 H   0  0  0  0  0  0  0  0  0  0  0  0
    5.5891   -9.3838   11.4391 H   0  0  0  0  0  0  0  0  0  0  0  0
    5.8140   -9.6625    8.9087 H   0  0  0  0  0  0  0  0  0  0  0  0
    5.9751  -11.1425    9.8520 H   0  0  0  0  0  0  0  0  0  0  0  0
    2.6542  -12.0932    8.6756 H   0  0  0  0  0  0  0  0  0  0  0  0
    3.9670  -12.6829    9.7222 H   0  0  0  0  0  0  0  0  0  0  0  0
  1  2  1  0
  2  3  1  0
  3  4  1  0
  4  5  1  0
  5  6  1  0
  6  7  1  0
  7  8  2  0
  7  9  2  0
  7 10  1  0
 10 11  1  0
 11 12  1  0
 12 13  1  0
 13 14  1  0
 14 15  1  0
 15 16  1  0
 16 17  1  0
 11 18  1  0
 18 19  1  0
 18 20  1  0
 18 21  1  0
 17 12  1  0
  1 22  1  0
  1 23  1  0
  1 24  1  0
  2 25  1  0
  2 26  1  0
  3 27  1  0
  3 28  1  0
  4 29  1  0
  4 30  1  0
  5 31  1  0
  5 32  1  0
  6 33  1  0
  6 34  1  0
 10 35  1  0
 11 36  1  0
 12 37  1  0
 13 38  1  0
 13 39  1  0
 14 40  1  0
 14 41  1  0
 15 42  1  0
 15 43  1  0
 17 44  1  0
 17 45  1  0
M  END
>  <Energy>  (242) 
609.70290275163177

>  <compound_id>  (242) 
61213

>  <target_id>  (242) 
1

>  <reference_id>  (242) 
111

>  <inspiration_ids>  (242) 
[112, 111]

>  <energy_score>  (242) 
557.6870299366448

>  <distance_score>  (242) 
12.521551710271716

>  <path>  (242) 
/opt/xchem-fragalysis-2/maxwin/BulkDock/SCRATCH/511024/C61213-P111/C61213-P111.minimised.mol

>  <scratch_subdir>  (242) 
/opt/xchem-fragalysis-2/maxwin/BulkDock/SCRATCH/511024/C61213-P111

>  <fragmenstein_runtime>  (242) 
27.558955907821655

>  <fragmenstein_outcome>  (242) 
too moved

>  <fragmenstein_mode>  (242) 
expansion

>  <fragmenstein_error>  (242) 


$$$$
C61214-P112
     RDKit          3D

 41 41  0  0  0  0  0  0  0  0999 V2000
   -2.4599  -16.6979   11.6931 C   0  0  0  0  0  0  0  0  0  0  0  0
   -3.5742  -17.7127   11.6429 C   0  0  0  0  0  0  0  0  0  0  0  0
   -4.5081  -18.5042   11.5853 C   0  0  0  0  0  0  0  0  0  0  0  0
   -5.8392  -19.3034   11.4296 C   0  0  0  0  0  0  0  0  0  0  0  0
   -5.9273  -20.8538   11.8057 C   0  0  0  0  0  0  0  0  0  0  0  0
   -7.3493  -21.4022   12.4764 C   0  0  0  0  0  0  0  0  0  0  0  0
   -7.8816  -22.8642   12.3505 N   0  0  0  0  0  0  0  0  0  0  0  0
   -9.3410  -23.4609   13.1105 S   0  0  0  0  0  0  0  0  0  0  0  0
   -9.5066  -22.6878   14.3128 O   0  0  0  0  0  0  0  0  0  0  0  0
   -9.1986  -24.9004   13.1580 O   0  0  0  0  0  0  0  0  0  0  0  0
  -10.7274  -23.1969   12.0814 C   0  0  0  0  0  0  0  0  0  0  0  0
  -11.4682  -24.4555   11.6701 C   0  0  0  0  0  0  0  0  0  0  0  0
  -12.3516  -24.0945   10.6900 F   0  0  0  0  0  0  0  0  0  0  0  0
  -10.6009  -25.2801   11.0244 F   0  0  0  0  0  0  0  0  0  0  0  0
  -12.2608  -25.2315   12.7450 C   0  0  0  0  0  0  0  0  0  0  0  0
  -12.7878  -26.5749   12.2017 C   0  0  0  0  0  0  0  0  0  0  0  0
  -14.0423  -26.4237   11.3487 C   0  0  0  0  0  0  0  0  0  0  0  0
  -15.0610  -25.7451   12.0805 O   0  0  0  0  0  0  0  0  0  0  0  0
  -14.6750  -24.4217   12.4271 C   0  0  0  0  0  0  0  0  0  0  0  0
  -13.4485  -24.4445   13.3314 C   0  0  0  0  0  0  0  0  0  0  0  0
   -2.5081  -16.1360   12.6297 H   0  0  0  0  0  0  0  0  0  0  0  0
   -2.5522  -15.9972   10.8589 H   0  0  0  0  0  0  0  0  0  0  0  0
   -1.4895  -17.1976   11.6276 H   0  0  0  0  0  0  0  0  0  0  0  0
   -6.5902  -18.7435   11.9838 H   0  0  0  0  0  0  0  0  0  0  0  0
   -6.1362  -19.1756   10.3861 H   0  0  0  0  0  0  0  0  0  0  0  0
   -5.1012  -20.9750   12.4869 H   0  0  0  0  0  0  0  0  0  0  0  0
   -5.5744  -21.4646   10.9704 H   0  0  0  0  0  0  0  0  0  0  0  0
   -8.1349  -20.7723   12.0485 H   0  0  0  0  0  0  0  0  0  0  0  0
   -7.2406  -21.3170   13.5398 H   0  0  0  0  0  0  0  0  0  0  0  0
   -7.1211  -23.5575   12.3013 H   0  0  0  0  0  0  0  0  0  0  0  0
  -11.3894  -22.5396   12.6277 H   0  0  0  0  0  0  0  0  0  0  0  0
  -10.3813  -22.6568   11.2131 H   0  0  0  0  0  0  0  0  0  0  0  0
  -11.5753  -25.4690   13.5658 H   0  0  0  0  0  0  0  0  0  0  0  0
  -13.0418  -27.2031   13.0662 H   0  0  0  0  0  0  0  0  0  0  0  0
  -12.0111  -27.1085   11.6435 H   0  0  0  0  0  0  0  0  0  0  0  0
  -14.4291  -27.4143   11.0883 H   0  0  0  0  0  0  0  0  0  0  0  0
  -13.8448  -25.8972   10.4091 H   0  0  0  0  0  0  0  0  0  0  0  0
  -14.5092  -23.8369   11.5174 H   0  0  0  0  0  0  0  0  0  0  0  0
  -15.5133  -23.9590   12.9583 H   0  0  0  0  0  0  0  0  0  0  0  0
  -13.7337  -24.9324   14.2730 H   0  0  0  0  0  0  0  0  0  0  0  0
  -13.1726  -23.4228   13.5770 H   0  0  0  0  0  0  0  0  0  0  0  0
  1  2  1  0
  2  3  3  0
  3  4  1  0
  4  5  1  0
  5  6  1  0
  6  7  1  0
  7  8  1  0
  8  9  2  0
  8 10  2  0
  8 11  1  0
 11 12  1  0
 12 13  1  0
 12 14  1  0
 12 15  1  0
 15 16  1  0
 16 17  1  0
 17 18  1  0
 18 19  1  0
 19 20  1  0
 20 15  1  0
  1 21  1  0
  1 22  1  0
  1 23  1  0
  4 24  1  0
  4 25  1  0
  5 26  1  0
  5 27  1  0
  6 28  1  0
  6 29  1  0
  7 30  1  0
 11 31  1  0
 11 32  1  0
 15 33  1  0
 16 34  1  0
 16 35  1  0
 17 36  1  0
 17 37  1  0
 19 38  1  0
 19 39  1  0
 20 40  1  0
 20 41  1  0
M  END
>  <Energy>  (243) 
-54.14060455555105

>  <compound_id>  (243) 
61214

>  <target_id>  (243) 
1

>  <reference_id>  (243) 
112

>  <inspiration_ids>  (243) 
[112, 111]

>  <energy_score>  (243) 
3.578431769261563

>  <distance_score>  (243) 
12.621846681556239

>  <path>  (243) 
/opt/xchem-fragalysis-2/maxwin/BulkDock/SCRATCH/511024/C61214-P112/C61214-P112.minimised.mol

>  <scratch_subdir>  (243) 
/opt/xchem-fragalysis-2/maxwin/BulkDock/SCRATCH/511024/C61214-P112

>  <fragmenstein_runtime>  (243) 
6.826253414154053

>  <fragmenstein_outcome>  (243) 
too moved

>  <fragmenstein_mode>  (243) 
expansion

>  <fragmenstein_error>  (243) 


$$$$
C61214-P111
     RDKit          3D

 41 41  0  0  0  0  0  0  0  0999 V2000
   -0.1044  -14.2967   12.1540 C   0  0  0  0  0  0  0  0  0  0  0  0
   -1.0995  -15.3015   11.7512 C   0  0  0  0  0  0  0  0  0  0  0  0
   -1.9623  -16.1127   11.5029 C   0  0  0  0  0  0  0  0  0  0  0  0
   -3.0578  -17.0626   11.1160 C   0  0  0  0  0  0  0  0  0  0  0  0
   -3.5260  -18.0010   12.2401 C   0  0  0  0  0  0  0  0  0  0  0  0
   -4.3519  -19.1737   11.7173 C   0  0  0  0  0  0  0  0  0  0  0  0
   -5.8200  -19.0298   11.8842 N   0  0  0  0  0  0  0  0  0  0  0  0
   -6.6077  -17.7453   11.1840 S   0  0  0  0  0  0  0  0  0  0  0  0
   -6.5332  -16.6465   12.1193 O   0  0  0  0  0  0  0  0  0  0  0  0
   -6.0489  -17.6187    9.8547 O   0  0  0  0  0  0  0  0  0  0  0  0
   -8.3045  -18.2835   11.0306 C   0  0  0  0  0  0  0  0  0  0  0  0
   -8.9384  -17.7444    9.7694 C   0  0  0  0  0  0  0  0  0  0  0  0
  -10.1660  -18.3164    9.6619 F   0  0  0  0  0  0  0  0  0  0  0  0
   -8.3045  -18.2288    8.6617 F   0  0  0  0  0  0  0  0  0  0  0  0
   -9.0748  -16.2209    9.5790 C   0  0  0  0  0  0  0  0  0  0  0  0
  -10.2526  -15.8852    8.6460 C   0  0  0  0  0  0  0  0  0  0  0  0
  -11.6082  -15.8944    9.3560 C   0  0  0  0  0  0  0  0  0  0  0  0
  -11.6128  -15.1562   10.5740 O   0  0  0  0  0  0  0  0  0  0  0  0
  -10.5553  -15.4351   11.4732 C   0  0  0  0  0  0  0  0  0  0  0  0
   -9.2101  -15.3270   10.8111 C   0  0  0  0  0  0  0  0  0  0  0  0
    0.8300  -14.7987   12.0592 H   0  0  0  0  0  0  0  0  0  0  0  0
   -0.2636  -14.0106   13.1924 H   0  0  0  0  0  0  0  0  0  0  0  0
   -0.1080  -13.3830   11.5724 H   0  0  0  0  0  0  0  0  0  0  0  0
   -3.9011  -16.4690   10.7504 H   0  0  0  0  0  0  0  0  0  0  0  0
   -2.6927  -17.6546   10.2677 H   0  0  0  0  0  0  0  0  0  0  0  0
   -2.6284  -18.4127   12.7212 H   0  0  0  0  0  0  0  0  0  0  0  0
   -4.0558  -17.4396   13.0180 H   0  0  0  0  0  0  0  0  0  0  0  0
   -4.0630  -20.0618   12.2905 H   0  0  0  0  0  0  0  0  0  0  0  0
   -4.1209  -19.4103   10.6728 H   0  0  0  0  0  0  0  0  0  0  0  0
   -6.2133  -19.9624   11.6291 H   0  0  0  0  0  0  0  0  0  0  0  0
   -8.8547  -17.9445   11.9070 H   0  0  0  0  0  0  0  0  0  0  0  0
   -8.3284  -19.3742   11.0114 H   0  0  0  0  0  0  0  0  0  0  0  0
   -8.1573  -15.9007    9.0658 H   0  0  0  0  0  0  0  0  0  0  0  0
  -10.2623  -16.5431    7.7720 H   0  0  0  0  0  0  0  0  0  0  0  0
  -10.0888  -14.8690    8.2617 H   0  0  0  0  0  0  0  0  0  0  0  0
  -11.9635  -16.9027    9.5462 H   0  0  0  0  0  0  0  0  0  0  0  0
  -12.3506  -15.4210    8.7062 H   0  0  0  0  0  0  0  0  0  0  0  0
  -10.6237  -14.7090   12.2903 H   0  0  0  0  0  0  0  0  0  0  0  0
  -10.6473  -16.4174   11.9249 H   0  0  0  0  0  0  0  0  0  0  0  0
   -8.4311  -15.5003   11.5469 H   0  0  0  0  0  0  0  0  0  0  0  0
   -9.0771  -14.2869   10.4817 H   0  0  0  0  0  0  0  0  0  0  0  0
  1  2  1  0
  2  3  3  0
  3  4  1  0
  4  5  1  0
  5  6  1  0
  6  7  1  0
  7  8  1  0
  8  9  2  0
  8 10  2  0
  8 11  1  0
 11 12  1  0
 12 13  1  0
 12 14  1  0
 12 15  1  0
 15 16  1  0
 16 17  1  0
 17 18  1  0
 18 19  1  0
 19 20  1  0
 20 15  1  0
  1 21  1  0
  1 22  1  0
  1 23  1  0
  4 24  1  0
  4 25  1  0
  5 26  1  0
  5 27  1  0
  6 28  1  0
  6 29  1  0
  7 30  1  0
 11 31  1  0
 11 32  1  0
 15 33  1  0
 16 34  1  0
 16 35  1  0
 17 36  1  0
 17 37  1  0
 19 38  1  0
 19 39  1  0
 20 40  1  0
 20 41  1  0
M  END
>  <Energy>  (244) 
-78.241312777715294

>  <compound_id>  (244) 
61214

>  <target_id>  (244) 
1

>  <reference_id>  (244) 
111

>  <inspiration_ids>  (244) 
[112, 111]

>  <energy_score>  (244) 
-20.522276452902872

>  <distance_score>  (244) 
13.638840790701977

>  <path>  (244) 
/opt/xchem-fragalysis-2/maxwin/BulkDock/SCRATCH/511024/C61214-P111/C61214-P111.minimised.mol

>  <scratch_subdir>  (244) 
/opt/xchem-fragalysis-2/maxwin/BulkDock/SCRATCH/511024/C61214-P111

>  <fragmenstein_runtime>  (244) 
8.988569498062134

>  <fragmenstein_outcome>  (244) 
too moved

>  <fragmenstein_mode>  (244) 
expansion

>  <fragmenstein_error>  (244) 


$$$$
C61215-P112
     RDKit          3D

 36 36  0  0  0  0  0  0  0  0999 V2000
   -6.5403  -19.1115   11.0729 C   0  0  0  0  0  0  0  0  0  0  0  0
   -6.8394  -18.0234   10.0389 C   0  0  0  0  0  0  0  0  0  0  0  0
   -5.9279  -16.7744   10.2398 N   0  0  0  0  0  0  0  0  0  0  0  0
   -4.5107  -16.7070    9.2579 S   0  0  0  0  0  0  0  0  0  0  0  0
   -5.1410  -16.3293    8.0036 O   0  0  0  0  0  0  0  0  0  0  0  0
   -3.9214  -18.0262    9.3045 O   0  0  0  0  0  0  0  0  0  0  0  0
   -3.0901  -15.2499    9.6842 C   0  0  0  0  0  0  0  0  0  0  0  0
   -1.6284  -14.8637   10.8379 C   0  0  0  0  0  0  0  0  0  0  0  0
   -0.4924  -13.4418   11.5860 C   0  0  0  0  0  0  0  0  0  0  0  0
   -0.3141  -11.6819   11.5336 C   0  0  0  0  0  0  0  0  0  0  0  0
    1.1600  -10.8465   11.4139 C   0  0  0  0  0  0  0  0  0  0  0  0
    2.2801  -11.4531   10.6893 C   0  0  0  0  0  0  0  0  0  0  0  0
    1.6442  -12.7540   10.7538 O   0  0  0  0  0  0  0  0  0  0  0  0
    0.9454  -13.6364   11.7326 C   0  0  0  0  0  0  0  0  0  0  0  0
   -8.3504  -17.7552   10.1229 C   0  0  0  0  0  0  0  0  0  0  0  0
   -9.0386  -18.8479    9.6913 F   0  0  0  0  0  0  0  0  0  0  0  0
   -8.7257  -17.5684   11.4158 F   0  0  0  0  0  0  0  0  0  0  0  0
   -5.6142  -19.6453   10.8390 H   0  0  0  0  0  0  0  0  0  0  0  0
   -7.3432  -19.8492   11.1479 H   0  0  0  0  0  0  0  0  0  0  0  0
   -6.4198  -18.6591   12.0543 H   0  0  0  0  0  0  0  0  0  0  0  0
   -6.6425  -18.3847    9.0314 H   0  0  0  0  0  0  0  0  0  0  0  0
   -6.4396  -15.8942   10.1369 H   0  0  0  0  0  0  0  0  0  0  0  0
   -3.5476  -14.3592    9.2696 H   0  0  0  0  0  0  0  0  0  0  0  0
   -2.5496  -15.7680    8.8945 H   0  0  0  0  0  0  0  0  0  0  0  0
   -2.3869  -14.8635   11.5663 H   0  0  0  0  0  0  0  0  0  0  0  0
   -0.9386  -15.7113   10.8302 H   0  0  0  0  0  0  0  0  0  0  0  0
   -0.6559  -13.6722   12.6389 H   0  0  0  0  0  0  0  0  0  0  0  0
   -0.8776  -11.2860   10.7145 H   0  0  0  0  0  0  0  0  0  0  0  0
   -0.7583  -11.3006   12.4417 H   0  0  0  0  0  0  0  0  0  0  0  0
    1.2152   -9.8392   11.0284 H   0  0  0  0  0  0  0  0  0  0  0  0
    1.4743  -10.8530   12.4139 H   0  0  0  0  0  0  0  0  0  0  0  0
    2.4239  -11.0161    9.6732 H   0  0  0  0  0  0  0  0  0  0  0  0
    3.3456  -11.4221   10.8435 H   0  0  0  0  0  0  0  0  0  0  0  0
    1.1521  -13.4145   12.7679 H   0  0  0  0  0  0  0  0  0  0  0  0
    1.1231  -14.6994   11.5564 H   0  0  0  0  0  0  0  0  0  0  0  0
   -8.6563  -16.8867    9.5335 H   0  0  0  0  0  0  0  0  0  0  0  0
  1  2  1  0
  2  3  1  0
  3  4  1  0
  4  5  2  0
  4  6  2  0
  4  7  1  0
  7  8  1  0
  8  9  1  0
  9 10  1  0
 10 11  1  0
 11 12  1  0
 12 13  1  0
 13 14  1  0
  2 15  1  0
 15 16  1  0
 15 17  1  0
 14  9  1  0
  1 18  1  0
  1 19  1  0
  1 20  1  0
  2 21  1  0
  3 22  1  0
  7 23  1  0
  7 24  1  0
  8 25  1  0
  8 26  1  0
  9 27  1  0
 10 28  1  0
 10 29  1  0
 11 30  1  0
 11 31  1  0
 12 32  1  0
 12 33  1  0
 14 34  1  0
 14 35  1  0
 15 36  1  0
M  END
>  <Energy>  (245) 
295.58699286160294

>  <compound_id>  (245) 
61215

>  <target_id>  (245) 
1

>  <reference_id>  (245) 
112

>  <inspiration_ids>  (245) 
[112, 111]

>  <energy_score>  (245) 
250.8444968212945

>  <distance_score>  (245) 
12.661180944037728

>  <path>  (245) 
/opt/xchem-fragalysis-2/maxwin/BulkDock/SCRATCH/511024/C61215-P112/C61215-P112.minimised.mol

>  <scratch_subdir>  (245) 
/opt/xchem-fragalysis-2/maxwin/BulkDock/SCRATCH/511024/C61215-P112

>  <fragmenstein_runtime>  (245) 
23.19419836997986

>  <fragmenstein_outcome>  (245) 
too moved

>  <fragmenstein_mode>  (245) 
expansion

>  <fragmenstein_error>  (245) 


$$$$
C61215-P111
     RDKit          3D

 36 36  0  0  0  0  0  0  0  0999 V2000
   -2.3435  -16.7031    8.5441 C   0  0  0  0  0  0  0  0  0  0  0  0
   -3.0245  -15.6763    9.4410 C   0  0  0  0  0  0  0  0  0  0  0  0
   -2.1468  -14.9925   10.8332 N   0  0  0  0  0  0  0  0  0  0  0  0
   -0.2500  -14.5801   11.4181 S   0  0  0  0  0  0  0  0  0  0  0  0
   -0.0850  -14.6877   12.8426 O   0  0  0  0  0  0  0  0  0  0  0  0
    0.5065  -15.5773   10.6876 O   0  0  0  0  0  0  0  0  0  0  0  0
    0.2096  -12.4318   11.4658 C   0  0  0  0  0  0  0  0  0  0  0  0
    1.8186  -11.4626   11.3078 C   0  0  0  0  0  0  0  0  0  0  0  0
    3.0470  -10.5048   10.4410 C   0  0  0  0  0  0  0  0  0  0  0  0
    2.6036   -9.1764    9.7842 C   0  0  0  0  0  0  0  0  0  0  0  0
    3.7478   -8.4255    9.0732 C   0  0  0  0  0  0  0  0  0  0  0  0
    5.1199   -8.5954    9.7050 C   0  0  0  0  0  0  0  0  0  0  0  0
    4.9761   -8.9192   11.0708 O   0  0  0  0  0  0  0  0  0  0  0  0
    4.3799  -10.2113   11.2523 C   0  0  0  0  0  0  0  0  0  0  0  0
   -4.5597  -16.1944    9.4629 C   0  0  0  0  0  0  0  0  0  0  0  0
   -5.0860  -16.0758    8.1981 F   0  0  0  0  0  0  0  0  0  0  0  0
   -4.6871  -17.5267    9.7130 F   0  0  0  0  0  0  0  0  0  0  0  0
   -2.8933  -17.6447    8.4617 H   0  0  0  0  0  0  0  0  0  0  0  0
   -2.3207  -16.3391    7.5091 H   0  0  0  0  0  0  0  0  0  0  0  0
   -1.3192  -16.9241    8.8354 H   0  0  0  0  0  0  0  0  0  0  0  0
   -3.1919  -14.7493    8.9059 H   0  0  0  0  0  0  0  0  0  0  0  0
   -2.7785  -14.8586   11.6358 H   0  0  0  0  0  0  0  0  0  0  0  0
   -0.5715  -11.8447   11.0141 H   0  0  0  0  0  0  0  0  0  0  0  0
    0.0223  -12.3136   12.5407 H   0  0  0  0  0  0  0  0  0  0  0  0
    2.2291  -12.3222   10.7603 H   0  0  0  0  0  0  0  0  0  0  0  0
    1.1543  -10.6241   11.1534 H   0  0  0  0  0  0  0  0  0  0  0  0
    3.3625  -11.1491    9.6037 H   0  0  0  0  0  0  0  0  0  0  0  0
    1.8053   -9.3595    9.0579 H   0  0  0  0  0  0  0  0  0  0  0  0
    2.1766   -8.4962   10.5228 H   0  0  0  0  0  0  0  0  0  0  0  0
    3.8019   -8.7363    8.0228 H   0  0  0  0  0  0  0  0  0  0  0  0
    3.4882   -7.3594    9.0504 H   0  0  0  0  0  0  0  0  0  0  0  0
    5.6967   -7.6689    9.6189 H   0  0  0  0  0  0  0  0  0  0  0  0
    5.6916   -9.3821    9.1982 H   0  0  0  0  0  0  0  0  0  0  0  0
    5.1279  -10.9724   10.9960 H   0  0  0  0  0  0  0  0  0  0  0  0
    4.2416  -10.2623   12.3277 H   0  0  0  0  0  0  0  0  0  0  0  0
   -5.2501  -15.6479   10.0934 H   0  0  0  0  0  0  0  0  0  0  0  0
  1  2  1  0
  2  3  1  0
  3  4  1  0
  4  5  2  0
  4  6  2  0
  4  7  1  0
  7  8  1  0
  8  9  1  0
  9 10  1  0
 10 11  1  0
 11 12  1  0
 12 13  1  0
 13 14  1  0
  2 15  1  0
 15 16  1  0
 15 17  1  0
 14  9  1  0
  1 18  1  0
  1 19  1  0
  1 20  1  0
  2 21  1  0
  3 22  1  0
  7 23  1  0
  7 24  1  0
  8 25  1  0
  8 26  1  0
  9 27  1  0
 10 28  1  0
 10 29  1  0
 11 30  1  0
 11 31  1  0
 12 32  1  0
 12 33  1  0
 14 34  1  0
 14 35  1  0
 15 36  1  0
M  END
>  <Energy>  (246) 
280.69713092278823

>  <compound_id>  (246) 
61215

>  <target_id>  (246) 
1

>  <reference_id>  (246) 
111

>  <inspiration_ids>  (246) 
[112, 111]

>  <energy_score>  (246) 
235.95463488247694

>  <distance_score>  (246) 
13.238690472325665

>  <path>  (246) 
/opt/xchem-fragalysis-2/maxwin/BulkDock/SCRATCH/511024/C61215-P111/C61215-P111.minimised.mol

>  <scratch_subdir>  (246) 
/opt/xchem-fragalysis-2/maxwin/BulkDock/SCRATCH/511024/C61215-P111

>  <fragmenstein_runtime>  (246) 
19.61683678627014

>  <fragmenstein_outcome>  (246) 
too moved

>  <fragmenstein_mode>  (246) 
expansion

>  <fragmenstein_error>  (246) 


$$$$
C53850-P112
     RDKit          3D

 30 30  0  0  0  0  0  0  0  0999 V2000
   -0.4352  -13.5501   13.2047 C   0  0  0  0  0  0  0  0  0  0  0  0
   -1.5166  -14.3650   14.6035 C   0  0  0  0  0  0  0  0  0  0  0  0
   -2.6293  -14.7886   15.3622 C   0  0  0  0  0  0  0  0  0  0  0  0
   -3.4363  -15.1323   16.8731 C   0  0  0  0  0  0  0  0  0  0  0  0
   -4.2822  -16.5367   17.0970 C   0  0  0  0  0  0  0  0  0  0  0  0
   -5.1786  -16.3697   18.3448 C   0  0  0  0  0  0  0  0  0  0  0  0
   -5.1874  -17.0730   16.0598 N   0  0  0  0  0  0  0  0  0  0  0  0
   -5.9885  -18.2968   16.0274 C   0  0  0  0  0  0  0  0  0  0  0  0
   -6.0479  -19.2097   16.8013 O   0  0  0  0  0  0  0  0  0  0  0  0
   -6.9605  -18.2466   14.7823 C   0  0  0  0  0  0  0  0  0  0  0  0
   -7.9013  -17.2594   14.9289 F   0  0  0  0  0  0  0  0  0  0  0  0
   -7.6611  -19.4922   14.4420 N   0  0  0  0  0  0  0  0  0  0  0  0
   -7.8758  -19.9761   13.1707 C   0  0  0  0  0  0  0  0  0  0  0  0
   -8.6045  -21.1309   13.3182 C   0  0  0  0  0  0  0  0  0  0  0  0
   -8.7907  -21.2562   14.6963 C   0  0  0  0  0  0  0  0  0  0  0  0
   -8.3238  -20.2074   15.3706 N   0  0  0  0  0  0  0  0  0  0  0  0
    0.6676  -13.6658   13.3292 H   0  0  0  0  0  0  0  0  0  0  0  0
   -0.5663  -12.4682   13.1107 H   0  0  0  0  0  0  0  0  0  0  0  0
   -0.6070  -14.1016   12.2645 H   0  0  0  0  0  0  0  0  0  0  0  0
   -2.6988  -15.0591   17.6844 H   0  0  0  0  0  0  0  0  0  0  0  0
   -3.9750  -14.2613   17.2522 H   0  0  0  0  0  0  0  0  0  0  0  0
   -3.5940  -17.3526   17.3418 H   0  0  0  0  0  0  0  0  0  0  0  0
   -4.5885  -16.0020   19.1910 H   0  0  0  0  0  0  0  0  0  0  0  0
   -5.9895  -15.6568   18.1592 H   0  0  0  0  0  0  0  0  0  0  0  0
   -5.6307  -17.3188   18.6506 H   0  0  0  0  0  0  0  0  0  0  0  0
   -5.3278  -16.5651   15.2015 H   0  0  0  0  0  0  0  0  0  0  0  0
   -6.3608  -17.9949   13.9042 H   0  0  0  0  0  0  0  0  0  0  0  0
   -7.4996  -19.4645   12.2958 H   0  0  0  0  0  0  0  0  0  0  0  0
   -8.9600  -21.7939   12.5516 H   0  0  0  0  0  0  0  0  0  0  0  0
   -9.2621  -22.0573   15.2405 H   0  0  0  0  0  0  0  0  0  0  0  0
  1  2  1  0
  2  3  3  0
  3  4  1  0
  4  5  1  0
  5  6  1  0
  5  7  1  0
  7  8  1  0
  8  9  2  0
  8 10  1  0
 10 11  1  0
 10 12  1  0
 12 13  1  0
 13 14  2  0
 14 15  1  0
 15 16  2  0
 16 12  1  0
  1 17  1  0
  1 18  1  0
  1 19  1  0
  4 20  1  0
  4 21  1  0
  5 22  1  0
  6 23  1  0
  6 24  1  0
  6 25  1  0
  7 26  1  0
 10 27  1  0
 13 28  1  0
 14 29  1  0
 15 30  1  0
M  END
>  <Energy>  (247) 
225.91976017243582

>  <compound_id>  (247) 
53850

>  <target_id>  (247) 
1

>  <reference_id>  (247) 
112

>  <inspiration_ids>  (247) 
[112, 111]

>  <energy_score>  (247) 
114.75266948401648

>  <distance_score>  (247) 
13.466746248020506

>  <path>  (247) 
/opt/xchem-fragalysis-2/maxwin/BulkDock/SCRATCH/511024/C53850-P112/C53850-P112.minimised.mol

>  <scratch_subdir>  (247) 
/opt/xchem-fragalysis-2/maxwin/BulkDock/SCRATCH/511024/C53850-P112

>  <fragmenstein_runtime>  (247) 
12.484690427780151

>  <fragmenstein_outcome>  (247) 
too moved

>  <fragmenstein_mode>  (247) 
expansion

>  <fragmenstein_error>  (247) 


$$$$
C53850-P111
     RDKit          3D

 30 30  0  0  0  0  0  0  0  0999 V2000
   -0.5301  -11.3662   10.9881 C   0  0  0  0  0  0  0  0  0  0  0  0
   -1.7692  -10.7655    9.6224 C   0  0  0  0  0  0  0  0  0  0  0  0
   -2.7641  -11.3086    9.0423 C   0  0  0  0  0  0  0  0  0  0  0  0
   -3.9192  -12.6285    8.3132 C   0  0  0  0  0  0  0  0  0  0  0  0
   -5.1949  -14.1143    8.4146 C   0  0  0  0  0  0  0  0  0  0  0  0
   -5.4441  -14.1694    6.6603 C   0  0  0  0  0  0  0  0  0  0  0  0
   -6.4602  -15.2660    9.1468 N   0  0  0  0  0  0  0  0  0  0  0  0
   -6.5898  -15.9981   10.7765 C   0  0  0  0  0  0  0  0  0  0  0  0
   -5.8456  -15.7186   11.7210 O   0  0  0  0  0  0  0  0  0  0  0  0
   -7.8996  -17.4900   11.0334 C   0  0  0  0  0  0  0  0  0  0  0  0
   -7.4049  -18.5075   11.8120 F   0  0  0  0  0  0  0  0  0  0  0  0
   -8.3114  -18.0751    9.7287 N   0  0  0  0  0  0  0  0  0  0  0  0
   -9.5744  -18.2520    9.2331 C   0  0  0  0  0  0  0  0  0  0  0  0
   -9.4571  -19.0704    8.1371 C   0  0  0  0  0  0  0  0  0  0  0  0
   -8.0933  -19.0652    7.8711 C   0  0  0  0  0  0  0  0  0  0  0  0
   -7.3995  -18.4924    8.8537 N   0  0  0  0  0  0  0  0  0  0  0  0
   -0.4000  -12.4445   11.0812 H   0  0  0  0  0  0  0  0  0  0  0  0
    0.4405  -10.8333   10.9744 H   0  0  0  0  0  0  0  0  0  0  0  0
   -0.9225  -11.0872   11.9744 H   0  0  0  0  0  0  0  0  0  0  0  0
   -3.2742  -13.2891    8.8678 H   0  0  0  0  0  0  0  0  0  0  0  0
   -3.9089  -12.2230    7.3141 H   0  0  0  0  0  0  0  0  0  0  0  0
   -5.5906  -13.6971    9.2597 H   0  0  0  0  0  0  0  0  0  0  0  0
   -4.9989  -13.3944    6.0397 H   0  0  0  0  0  0  0  0  0  0  0  0
   -4.9205  -15.0506    6.2458 H   0  0  0  0  0  0  0  0  0  0  0  0
   -6.4947  -14.1845    6.3200 H   0  0  0  0  0  0  0  0  0  0  0  0
   -7.2619  -15.6000    8.5587 H   0  0  0  0  0  0  0  0  0  0  0  0
   -8.8341  -17.2106   11.5429 H   0  0  0  0  0  0  0  0  0  0  0  0
  -10.4283  -17.7811    9.6738 H   0  0  0  0  0  0  0  0  0  0  0  0
  -10.2288  -19.4996    7.5251 H   0  0  0  0  0  0  0  0  0  0  0  0
   -7.5555  -19.4746    7.0255 H   0  0  0  0  0  0  0  0  0  0  0  0
  1  2  1  0
  2  3  3  0
  3  4  1  0
  4  5  1  0
  5  6  1  0
  5  7  1  0
  7  8  1  0
  8  9  2  0
  8 10  1  0
 10 11  1  0
 10 12  1  0
 12 13  1  0
 13 14  2  0
 14 15  1  0
 15 16  2  0
 16 12  1  0
  1 17  1  0
  1 18  1  0
  1 19  1  0
  4 20  1  0
  4 21  1  0
  5 22  1  0
  6 23  1  0
  6 24  1  0
  6 25  1  0
  7 26  1  0
 10 27  1  0
 13 28  1  0
 14 29  1  0
 15 30  1  0
M  END
>  <Energy>  (248) 
548.48862958814016

>  <compound_id>  (248) 
53850

>  <target_id>  (248) 
1

>  <reference_id>  (248) 
111

>  <inspiration_ids>  (248) 
[112, 111]

>  <energy_score>  (248) 
437.32153889971744

>  <distance_score>  (248) 
13.6781213906718

>  <path>  (248) 
/opt/xchem-fragalysis-2/maxwin/BulkDock/SCRATCH/511024/C53850-P111/C53850-P111.minimised.mol

>  <scratch_subdir>  (248) 
/opt/xchem-fragalysis-2/maxwin/BulkDock/SCRATCH/511024/C53850-P111

>  <fragmenstein_runtime>  (248) 
13.228053569793701

>  <fragmenstein_outcome>  (248) 
too moved

>  <fragmenstein_mode>  (248) 
expansion

>  <fragmenstein_error>  (248) 


$$$$
C53860-P112
     RDKit          3D

 30 30  0  0  0  0  0  0  0  0999 V2000
    8.7764   -6.6558    8.3561 C   0  0  0  0  0  0  0  0  0  0  0  0
    8.1394   -7.4787    7.2238 C   0  0  0  0  0  0  0  0  0  0  0  0
    7.1200   -8.4993    7.7614 C   0  0  0  0  0  0  0  0  0  0  0  0
    6.1589   -9.5956    6.5929 S   0  0  0  0  0  0  0  0  0  0  0  0
    5.1693  -10.7374    7.8072 C   0  0  0  0  0  0  0  0  0  0  0  0
    3.6771  -11.2666    7.5396 C   0  0  0  0  0  0  0  0  0  0  0  0
    2.8408  -12.0852    8.6713 N   0  0  0  0  0  0  0  0  0  0  0  0
    2.5215  -11.4752   10.3708 S   0  0  0  0  0  0  0  0  0  0  0  0
    1.5606  -10.4093   10.5920 O   0  0  0  0  0  0  0  0  0  0  0  0
    3.8622  -11.2397   10.6957 O   0  0  0  0  0  0  0  0  0  0  0  0
    1.1294  -12.9229   11.3227 C   0  0  0  0  0  0  0  0  0  0  0  0
    0.9472  -14.3282   11.5122 C   0  0  0  0  0  0  0  0  0  0  0  0
   -0.3289  -14.4979   11.8637 C   0  0  0  0  0  0  0  0  0  0  0  0
   -0.5811  -13.4454   12.6055 N   0  0  0  0  0  0  0  0  0  0  0  0
    0.0924  -12.4326   12.0437 N   0  0  0  0  0  0  0  0  0  0  0  0
    9.2964   -7.3084    9.0642 H   0  0  0  0  0  0  0  0  0  0  0  0
    8.0127   -6.0906    8.8994 H   0  0  0  0  0  0  0  0  0  0  0  0
    9.5011   -5.9464    7.9451 H   0  0  0  0  0  0  0  0  0  0  0  0
    8.9277   -8.0038    6.6727 H   0  0  0  0  0  0  0  0  0  0  0  0
    7.6445   -6.7991    6.5207 H   0  0  0  0  0  0  0  0  0  0  0  0
    6.3346   -7.9309    8.2534 H   0  0  0  0  0  0  0  0  0  0  0  0
    7.6453   -9.1754    8.4376 H   0  0  0  0  0  0  0  0  0  0  0  0
    5.1391  -10.1556    8.6977 H   0  0  0  0  0  0  0  0  0  0  0  0
    5.8115  -11.6087    7.9605 H   0  0  0  0  0  0  0  0  0  0  0  0
    3.7583  -11.9926    6.7187 H   0  0  0  0  0  0  0  0  0  0  0  0
    3.0211  -10.4816    7.1592 H   0  0  0  0  0  0  0  0  0  0  0  0
    3.2931  -12.9950    8.7793 H   0  0  0  0  0  0  0  0  0  0  0  0
    1.4212  -15.1823   11.0360 H   0  0  0  0  0  0  0  0  0  0  0  0
   -0.9149  -15.4004   11.7649 H   0  0  0  0  0  0  0  0  0  0  0  0
   -0.2002  -11.4708   12.1669 H   0  0  0  0  0  0  0  0  0  0  0  0
  1  2  1  0
  2  3  1  0
  3  4  1  0
  4  5  1  0
  5  6  1  0
  6  7  1  0
  7  8  1  0
  8  9  2  0
  8 10  2  0
  8 11  1  0
 11 12  2  0
 12 13  1  0
 13 14  2  0
 14 15  1  0
 15 11  1  0
  1 16  1  0
  1 17  1  0
  1 18  1  0
  2 19  1  0
  2 20  1  0
  3 21  1  0
  3 22  1  0
  5 23  1  0
  5 24  1  0
  6 25  1  0
  6 26  1  0
  7 27  1  0
 12 28  1  0
 13 29  1  0
 15 30  1  0
M  END
>  <Energy>  (249) 
53.066511226933805

>  <compound_id>  (249) 
53860

>  <target_id>  (249) 
1

>  <reference_id>  (249) 
112

>  <inspiration_ids>  (249) 
[112, 111]

>  <energy_score>  (249) 
96.73014282789424

>  <distance_score>  (249) 
15.408462945730202

>  <path>  (249) 
/opt/xchem-fragalysis-2/maxwin/BulkDock/SCRATCH/511024/C53860-P112/C53860-P112.minimised.mol

>  <scratch_subdir>  (249) 
/opt/xchem-fragalysis-2/maxwin/BulkDock/SCRATCH/511024/C53860-P112

>  <fragmenstein_runtime>  (249) 
7.2252418994903564

>  <fragmenstein_outcome>  (249) 
too moved

>  <fragmenstein_mode>  (249) 
expansion

>  <fragmenstein_error>  (249) 


$$$$
C53860-P111
     RDKit          3D

 30 30  0  0  0  0  0  0  0  0999 V2000
    9.2713   -9.7229   15.1303 C   0  0  0  0  0  0  0  0  0  0  0  0
    8.4659  -11.0074   14.8673 C   0  0  0  0  0  0  0  0  0  0  0  0
    6.9621  -10.7889   15.1217 C   0  0  0  0  0  0  0  0  0  0  0  0
    5.7383  -12.1036   14.6022 S   0  0  0  0  0  0  0  0  0  0  0  0
    3.6621  -11.8088   15.3254 C   0  0  0  0  0  0  0  0  0  0  0  0
    1.8245  -12.8801   14.9711 C   0  0  0  0  0  0  0  0  0  0  0  0
    0.6618  -13.7284   13.4942 N   0  0  0  0  0  0  0  0  0  0  0  0
    0.3271  -15.9000   13.0436 S   0  0  0  0  0  0  0  0  0  0  0  0
    1.4004  -16.8734   13.1771 O   0  0  0  0  0  0  0  0  0  0  0  0
   -0.2812  -15.8481   11.7191 O   0  0  0  0  0  0  0  0  0  0  0  0
   -0.7617  -16.9232   14.1666 C   0  0  0  0  0  0  0  0  0  0  0  0
   -0.9416  -17.1050   15.5283 C   0  0  0  0  0  0  0  0  0  0  0  0
   -1.9501  -18.0895   15.6510 C   0  0  0  0  0  0  0  0  0  0  0  0
   -2.3949  -18.5111   14.4690 N   0  0  0  0  0  0  0  0  0  0  0  0
   -1.6024  -17.8617   13.5849 N   0  0  0  0  0  0  0  0  0  0  0  0
    9.1378   -9.3876   16.1634 H   0  0  0  0  0  0  0  0  0  0  0  0
   10.3365   -9.9096   14.9646 H   0  0  0  0  0  0  0  0  0  0  0  0
    8.9549   -8.9180   14.4595 H   0  0  0  0  0  0  0  0  0  0  0  0
    8.6267  -11.3198   13.8287 H   0  0  0  0  0  0  0  0  0  0  0  0
    8.8356  -11.8117   15.5131 H   0  0  0  0  0  0  0  0  0  0  0  0
    6.7602   -9.9523   14.4651 H   0  0  0  0  0  0  0  0  0  0  0  0
    6.8245  -10.6008   16.1900 H   0  0  0  0  0  0  0  0  0  0  0  0
    3.6600  -10.8882   14.7067 H   0  0  0  0  0  0  0  0  0  0  0  0
    3.7477  -11.4857   16.3806 H   0  0  0  0  0  0  0  0  0  0  0  0
    1.2116  -12.1220   14.4727 H   0  0  0  0  0  0  0  0  0  0  0  0
    1.4856  -13.2866   15.9158 H   0  0  0  0  0  0  0  0  0  0  0  0
   -0.2407  -13.5768   13.9786 H   0  0  0  0  0  0  0  0  0  0  0  0
   -0.4050  -16.6001   16.3177 H   0  0  0  0  0  0  0  0  0  0  0  0
   -2.3778  -18.5098   16.5523 H   0  0  0  0  0  0  0  0  0  0  0  0
   -1.7268  -18.0214   12.5890 H   0  0  0  0  0  0  0  0  0  0  0  0
  1  2  1  0
  2  3  1  0
  3  4  1  0
  4  5  1  0
  5  6  1  0
  6  7  1  0
  7  8  1  0
  8  9  2  0
  8 10  2  0
  8 11  1  0
 11 12  2  0
 12 13  1  0
 13 14  2  0
 14 15  1  0
 15 11  1  0
  1 16  1  0
  1 17  1  0
  1 18  1  0
  2 19  1  0
  2 20  1  0
  3 21  1  0
  3 22  1  0
  5 23  1  0
  5 24  1  0
  6 25  1  0
  6 26  1  0
  7 27  1  0
 12 28  1  0
 13 29  1  0
 15 30  1  0
M  END
>  <Energy>  (250) 
294.73708692668976

>  <compound_id>  (250) 
53860

>  <target_id>  (250) 
1

>  <reference_id>  (250) 
111

>  <inspiration_ids>  (250) 
[112, 111]

>  <energy_score>  (250) 
338.40071852764925

>  <distance_score>  (250) 
13.151403622514197

>  <path>  (250) 
/opt/xchem-fragalysis-2/maxwin/BulkDock/SCRATCH/511024/C53860-P111/C53860-P111.minimised.mol

>  <scratch_subdir>  (250) 
/opt/xchem-fragalysis-2/maxwin/BulkDock/SCRATCH/511024/C53860-P111

>  <fragmenstein_runtime>  (250) 
8.231699705123901

>  <fragmenstein_outcome>  (250) 
too moved

>  <fragmenstein_mode>  (250) 
expansion

>  <fragmenstein_error>  (250) 


$$$$
C53866-P112
     RDKit          3D

 26 26  0  0  0  0  0  0  0  0999 V2000
    4.5398   -8.0507   15.1207 C   0  0  0  0  0  0  0  0  0  0  0  0
    4.1658   -9.5461   15.2116 C   0  0  0  0  0  0  0  0  0  0  0  0
    3.4983  -10.3591   13.9075 C   0  0  0  0  0  0  0  0  0  0  0  0
    1.7807  -11.2747   13.5895 O   0  0  0  0  0  0  0  0  0  0  0  0
    0.5244  -12.0402   12.4111 C   0  0  0  0  0  0  0  0  0  0  0  0
   -0.0372  -13.7999   12.3591 C   0  0  0  0  0  0  0  0  0  0  0  0
   -0.7476  -14.1725   13.5237 O   0  0  0  0  0  0  0  0  0  0  0  0
   -0.8337  -15.0069   11.5109 C   0  0  0  0  0  0  0  0  0  0  0  0
   -2.1550  -15.5202   11.5071 C   0  0  0  0  0  0  0  0  0  0  0  0
   -2.1222  -16.8447   11.0328 C   0  0  0  0  0  0  0  0  0  0  0  0
   -0.8828  -17.2188   10.7534 N   0  0  0  0  0  0  0  0  0  0  0  0
   -0.1399  -16.1445   11.0865 N   0  0  0  0  0  0  0  0  0  0  0  0
    5.4607   -7.8627   15.6841 H   0  0  0  0  0  0  0  0  0  0  0  0
    3.7653   -7.4381   15.5855 H   0  0  0  0  0  0  0  0  0  0  0  0
    4.6982   -7.7124   14.0988 H   0  0  0  0  0  0  0  0  0  0  0  0
    3.7322   -9.8026   16.1792 H   0  0  0  0  0  0  0  0  0  0  0  0
    5.1668  -10.0050   15.3089 H   0  0  0  0  0  0  0  0  0  0  0  0
    4.3418  -11.0997   14.0476 H   0  0  0  0  0  0  0  0  0  0  0  0
    3.7872   -9.9238   12.9764 H   0  0  0  0  0  0  0  0  0  0  0  0
    0.8560  -11.6463   11.4562 H   0  0  0  0  0  0  0  0  0  0  0  0
   -0.4055  -11.5281   12.6457 H   0  0  0  0  0  0  0  0  0  0  0  0
    0.9501  -14.2029   12.1722 H   0  0  0  0  0  0  0  0  0  0  0  0
   -0.1841  -13.9346   14.2899 H   0  0  0  0  0  0  0  0  0  0  0  0
   -3.0606  -15.0780   11.8881 H   0  0  0  0  0  0  0  0  0  0  0  0
   -2.9375  -17.5452   10.9088 H   0  0  0  0  0  0  0  0  0  0  0  0
    0.8655  -16.2548   11.0421 H   0  0  0  0  0  0  0  0  0  0  0  0
  1  2  1  0
  2  3  1  0
  3  4  1  0
  4  5  1  0
  5  6  1  0
  6  7  1  0
  6  8  1  0
  8  9  2  0
  9 10  1  0
 10 11  2  0
 11 12  1  0
 12  8  1  0
  1 13  1  0
  1 14  1  0
  1 15  1  0
  2 16  1  0
  2 17  1  0
  3 18  1  0
  3 19  1  0
  5 20  1  0
  5 21  1  0
  6 22  1  0
  7 23  1  0
  9 24  1  0
 10 25  1  0
 12 26  1  0
M  END
>  <Energy>  (251) 
362.63998178979006

>  <compound_id>  (251) 
53866

>  <target_id>  (251) 
1

>  <reference_id>  (251) 
112

>  <inspiration_ids>  (251) 
[112, 111]

>  <energy_score>  (251) 
315.66842642671907

>  <distance_score>  (251) 
15.16567290973508

>  <path>  (251) 
/opt/xchem-fragalysis-2/maxwin/BulkDock/SCRATCH/511024/C53866-P112/C53866-P112.minimised.mol

>  <scratch_subdir>  (251) 
/opt/xchem-fragalysis-2/maxwin/BulkDock/SCRATCH/511024/C53866-P112

>  <fragmenstein_runtime>  (251) 
5.0362536907196045

>  <fragmenstein_outcome>  (251) 
too moved

>  <fragmenstein_mode>  (251) 
expansion

>  <fragmenstein_error>  (251) 


$$$$
C53866-P111
     RDKit          3D

 26 26  0  0  0  0  0  0  0  0999 V2000
    4.0216  -16.0420    9.0252 C   0  0  0  0  0  0  0  0  0  0  0  0
    3.1791  -17.1297    9.6966 C   0  0  0  0  0  0  0  0  0  0  0  0
    1.6327  -16.9394    9.6754 C   0  0  0  0  0  0  0  0  0  0  0  0
    0.9427  -18.1316   10.2159 O   0  0  0  0  0  0  0  0  0  0  0  0
   -0.5376  -18.0917   10.1685 C   0  0  0  0  0  0  0  0  0  0  0  0
   -1.2365  -19.3294   10.8621 C   0  0  0  0  0  0  0  0  0  0  0  0
   -1.3969  -20.4142    9.9422 O   0  0  0  0  0  0  0  0  0  0  0  0
   -2.6164  -19.0465   11.3773 C   0  0  0  0  0  0  0  0  0  0  0  0
   -3.8708  -19.2764   10.8508 C   0  0  0  0  0  0  0  0  0  0  0  0
   -4.7728  -18.8236   11.8273 C   0  0  0  0  0  0  0  0  0  0  0  0
   -4.1502  -18.3056   12.8884 N   0  0  0  0  0  0  0  0  0  0  0  0
   -2.8521  -18.5379   12.6278 N   0  0  0  0  0  0  0  0  0  0  0  0
    3.9027  -16.1190    7.9406 H   0  0  0  0  0  0  0  0  0  0  0  0
    5.0822  -16.1827    9.2545 H   0  0  0  0  0  0  0  0  0  0  0  0
    3.7152  -15.0539    9.3439 H   0  0  0  0  0  0  0  0  0  0  0  0
    3.5050  -17.3031   10.7274 H   0  0  0  0  0  0  0  0  0  0  0  0
    3.3977  -18.0816    9.1937 H   0  0  0  0  0  0  0  0  0  0  0  0
    1.2919  -16.7983    8.6450 H   0  0  0  0  0  0  0  0  0  0  0  0
    1.3244  -16.0942   10.2858 H   0  0  0  0  0  0  0  0  0  0  0  0
   -0.8272  -18.0360    9.1136 H   0  0  0  0  0  0  0  0  0  0  0  0
   -0.8347  -17.1684   10.6783 H   0  0  0  0  0  0  0  0  0  0  0  0
   -0.5927  -19.6879   11.6737 H   0  0  0  0  0  0  0  0  0  0  0  0
   -1.8727  -21.1146   10.4253 H   0  0  0  0  0  0  0  0  0  0  0  0
   -4.0945  -19.7409    9.9015 H   0  0  0  0  0  0  0  0  0  0  0  0
   -5.8536  -18.8502   11.8080 H   0  0  0  0  0  0  0  0  0  0  0  0
   -2.1724  -18.2973   13.3417 H   0  0  0  0  0  0  0  0  0  0  0  0
  1  2  1  0
  2  3  1  0
  3  4  1  0
  4  5  1  0
  5  6  1  0
  6  7  1  0
  6  8  1  0
  8  9  2  0
  9 10  1  0
 10 11  2  0
 11 12  1  0
 12  8  1  0
  1 13  1  0
  1 14  1  0
  1 15  1  0
  2 16  1  0
  2 17  1  0
  3 18  1  0
  3 19  1  0
  5 20  1  0
  5 21  1  0
  6 22  1  0
  7 23  1  0
  9 24  1  0
 10 25  1  0
 12 26  1  0
M  END
>  <Energy>  (252) 
34.014945935319524

>  <compound_id>  (252) 
53866

>  <target_id>  (252) 
1

>  <reference_id>  (252) 
111

>  <inspiration_ids>  (252) 
[112, 111]

>  <energy_score>  (252) 
-12.956609427752923

>  <distance_score>  (252) 
16.0003180555516

>  <path>  (252) 
/opt/xchem-fragalysis-2/maxwin/BulkDock/SCRATCH/511024/C53866-P111/C53866-P111.minimised.mol

>  <scratch_subdir>  (252) 
/opt/xchem-fragalysis-2/maxwin/BulkDock/SCRATCH/511024/C53866-P111

>  <fragmenstein_runtime>  (252) 
4.360727787017822

>  <fragmenstein_outcome>  (252) 
too moved

>  <fragmenstein_mode>  (252) 
expansion

>  <fragmenstein_error>  (252) 


$$$$
C53879-P112
     RDKit          3D

 31 31  0  0  0  0  0  0  0  0999 V2000
    2.0331   -3.8594   14.7678 C   0  0  0  0  0  0  0  0  0  0  0  0
    0.6478   -3.8059   14.0745 C   0  0  0  0  0  0  0  0  0  0  0  0
    0.1303   -2.3969   14.4172 C   0  0  0  0  0  0  0  0  0  0  0  0
    0.9044   -3.9223   12.5655 C   0  0  0  0  0  0  0  0  0  0  0  0
   -0.2306   -4.9265   14.5776 O   0  0  0  0  0  0  0  0  0  0  0  0
   -1.6197   -4.9338   14.3622 C   0  0  0  0  0  0  0  0  0  0  0  0
   -2.0802   -4.0500   13.6871 O   0  0  0  0  0  0  0  0  0  0  0  0
   -2.2935   -6.0133   15.1131 N   0  0  0  0  0  0  0  0  0  0  0  0
   -3.7244   -6.2660   15.3474 N   0  0  0  0  0  0  0  0  0  0  0  0
   -2.4689   -7.3501   14.1712 C   0  0  0  0  0  0  0  0  0  0  0  0
   -3.1607   -8.7217   14.6208 C   0  0  0  0  0  0  0  0  0  0  0  0
   -3.3434   -9.3188   15.9055 C   0  0  0  0  0  0  0  0  0  0  0  0
   -4.0247  -10.5024   15.6976 C   0  0  0  0  0  0  0  0  0  0  0  0
   -4.2036  -10.5906   14.3516 N   0  0  0  0  0  0  0  0  0  0  0  0
   -3.6656   -9.5548   13.6779 N   0  0  0  0  0  0  0  0  0  0  0  0
    2.7689   -3.2442   14.2398 H   0  0  0  0  0  0  0  0  0  0  0  0
    2.4132   -4.8735   14.8557 H   0  0  0  0  0  0  0  0  0  0  0  0
    1.9466   -3.4368   15.7712 H   0  0  0  0  0  0  0  0  0  0  0  0
   -0.7302   -2.1177   13.8019 H   0  0  0  0  0  0  0  0  0  0  0  0
   -0.1968   -2.3474   15.4618 H   0  0  0  0  0  0  0  0  0  0  0  0
    0.8927   -1.6270   14.2502 H   0  0  0  0  0  0  0  0  0  0  0  0
    1.4117   -4.8517   12.3021 H   0  0  0  0  0  0  0  0  0  0  0  0
   -0.0399   -3.9214   12.0113 H   0  0  0  0  0  0  0  0  0  0  0  0
    1.5123   -3.0912   12.1910 H   0  0  0  0  0  0  0  0  0  0  0  0
   -4.2309   -5.5421   14.8204 H   0  0  0  0  0  0  0  0  0  0  0  0
   -3.8947   -6.0238   16.3275 H   0  0  0  0  0  0  0  0  0  0  0  0
   -1.4262   -7.5909   13.9620 H   0  0  0  0  0  0  0  0  0  0  0  0
   -2.8999   -7.0176   13.2122 H   0  0  0  0  0  0  0  0  0  0  0  0
   -3.0421   -8.9045   16.8574 H   0  0  0  0  0  0  0  0  0  0  0  0
   -4.3956  -11.2593   16.3736 H   0  0  0  0  0  0  0  0  0  0  0  0
   -4.6678  -11.3208   13.8200 H   0  0  0  0  0  0  0  0  0  0  0  0
  1  2  1  0
  2  3  1  0
  2  4  1  0
  2  5  1  0
  5  6  1  0
  6  7  2  0
  6  8  1  0
  8  9  1  0
  8 10  1  0
 10 11  1  0
 11 12  1  0
 12 13  2  0
 13 14  1  0
 14 15  1  0
 15 11  2  0
  1 16  1  0
  1 17  1  0
  1 18  1  0
  3 19  1  0
  3 20  1  0
  3 21  1  0
  4 22  1  0
  4 23  1  0
  4 24  1  0
  9 25  1  0
  9 26  1  0
 10 27  1  0
 10 28  1  0
 12 29  1  0
 13 30  1  0
 14 31  1  0
M  END
>  <Energy>  (253) 
154.54465969086047

>  <compound_id>  (253) 
53879

>  <target_id>  (253) 
1

>  <reference_id>  (253) 
112

>  <inspiration_ids>  (253) 
[112, 111]

>  <energy_score>  (253) 
55.87150127862179

>  <distance_score>  (253) 
15.542949799348424

>  <path>  (253) 
/opt/xchem-fragalysis-2/maxwin/BulkDock/SCRATCH/511024/C53879-P112/C53879-P112.minimised.mol

>  <scratch_subdir>  (253) 
/opt/xchem-fragalysis-2/maxwin/BulkDock/SCRATCH/511024/C53879-P112

>  <fragmenstein_runtime>  (253) 
11.55473279953003

>  <fragmenstein_outcome>  (253) 
too moved

>  <fragmenstein_mode>  (253) 
expansion

>  <fragmenstein_error>  (253) 


$$$$
C53879-P111
     RDKit          3D

 31 31  0  0  0  0  0  0  0  0999 V2000
    5.0296  -10.6704   13.8631 C   0  0  0  0  0  0  0  0  0  0  0  0
    4.3521   -9.3318   13.6031 C   0  0  0  0  0  0  0  0  0  0  0  0
    5.8989   -8.1121   13.8128 C   0  0  0  0  0  0  0  0  0  0  0  0
    4.0373   -7.9580   12.9479 C   0  0  0  0  0  0  0  0  0  0  0  0
    3.4087  -10.4408   12.3880 O   0  0  0  0  0  0  0  0  0  0  0  0
    2.2889  -10.9959   11.4273 C   0  0  0  0  0  0  0  0  0  0  0  0
    2.7353  -11.1005   10.2957 O   0  0  0  0  0  0  0  0  0  0  0  0
    0.6500  -11.2597   11.9623 N   0  0  0  0  0  0  0  0  0  0  0  0
   -0.5364  -11.5467   11.2115 N   0  0  0  0  0  0  0  0  0  0  0  0
    0.2443  -12.9309   12.4922 C   0  0  0  0  0  0  0  0  0  0  0  0
   -1.2212  -13.5739   12.6555 C   0  0  0  0  0  0  0  0  0  0  0  0
   -1.5066  -14.9744   12.4817 C   0  0  0  0  0  0  0  0  0  0  0  0
   -2.8359  -15.1386   12.7858 C   0  0  0  0  0  0  0  0  0  0  0  0
   -3.2837  -13.8962   13.1139 N   0  0  0  0  0  0  0  0  0  0  0  0
   -2.3369  -12.9251   13.0538 N   0  0  0  0  0  0  0  0  0  0  0  0
    4.4784  -11.2254   14.6169 H   0  0  0  0  0  0  0  0  0  0  0  0
    5.1832  -11.3337   13.0428 H   0  0  0  0  0  0  0  0  0  0  0  0
    6.0490  -10.6153   14.0759 H   0  0  0  0  0  0  0  0  0  0  0  0
    6.2423   -7.5415   14.6785 H   0  0  0  0  0  0  0  0  0  0  0  0
    6.7548   -8.6742   13.8317 H   0  0  0  0  0  0  0  0  0  0  0  0
    6.2324   -7.5088   12.9944 H   0  0  0  0  0  0  0  0  0  0  0  0
    4.4259   -7.0505   12.4578 H   0  0  0  0  0  0  0  0  0  0  0  0
    3.8776   -7.5356   13.9407 H   0  0  0  0  0  0  0  0  0  0  0  0
    3.4294   -8.0061   12.0171 H   0  0  0  0  0  0  0  0  0  0  0  0
   -0.6651  -10.9208   10.4356 H   0  0  0  0  0  0  0  0  0  0  0  0
   -1.3607  -11.3816   11.8068 H   0  0  0  0  0  0  0  0  0  0  0  0
    0.7232  -13.5984   11.7802 H   0  0  0  0  0  0  0  0  0  0  0  0
    0.6575  -13.0146   13.4945 H   0  0  0  0  0  0  0  0  0  0  0  0
   -0.8080  -15.7455   12.1889 H   0  0  0  0  0  0  0  0  0  0  0  0
   -3.4804  -16.0056   12.8016 H   0  0  0  0  0  0  0  0  0  0  0  0
   -4.2203  -13.6302   13.3957 H   0  0  0  0  0  0  0  0  0  0  0  0
  1  2  1  0
  2  3  1  0
  2  4  1  0
  2  5  1  0
  5  6  1  0
  6  7  2  0
  6  8  1  0
  8  9  1  0
  8 10  1  0
 10 11  1  0
 11 12  1  0
 12 13  2  0
 13 14  1  0
 14 15  1  0
 15 11  2  0
  1 16  1  0
  1 17  1  0
  1 18  1  0
  3 19  1  0
  3 20  1  0
  3 21  1  0
  4 22  1  0
  4 23  1  0
  4 24  1  0
  9 25  1  0
  9 26  1  0
 10 27  1  0
 10 28  1  0
 12 29  1  0
 13 30  1  0
 14 31  1  0
M  END
>  <Energy>  (254) 
552.85576278510916

>  <compound_id>  (254) 
53879

>  <target_id>  (254) 
1

>  <reference_id>  (254) 
111

>  <inspiration_ids>  (254) 
[112, 111]

>  <energy_score>  (254) 
454.1826043728657

>  <distance_score>  (254) 
13.529638782176395

>  <path>  (254) 
/opt/xchem-fragalysis-2/maxwin/BulkDock/SCRATCH/511024/C53879-P111/C53879-P111.minimised.mol

>  <scratch_subdir>  (254) 
/opt/xchem-fragalysis-2/maxwin/BulkDock/SCRATCH/511024/C53879-P111

>  <fragmenstein_runtime>  (254) 
11.211624383926392

>  <fragmenstein_outcome>  (254) 
too moved

>  <fragmenstein_mode>  (254) 
expansion

>  <fragmenstein_error>  (254) 


$$$$
C53888-P112
     RDKit          3D

 35 35  0  0  0  0  0  0  0  0999 V2000
    5.8264   -9.1311   16.6597 C   0  0  0  0  0  0  0  0  0  0  0  0
    4.5512   -9.5540   16.7276 C   0  0  0  0  0  0  0  0  0  0  0  0
    4.0555  -10.9902   16.5115 C   0  0  0  0  0  0  0  0  0  0  0  0
    2.8819  -11.5097   17.4619 C   0  0  0  0  0  0  0  0  0  0  0  0
    2.2568  -12.9960   17.1542 C   0  0  0  0  0  0  0  0  0  0  0  0
    1.0248  -13.6704   18.0326 C   0  0  0  0  0  0  0  0  0  0  0  0
    0.2572  -12.6885   18.9176 C   0  0  0  0  0  0  0  0  0  0  0  0
   -0.0831  -14.4727   17.3692 N   0  0  0  0  0  0  0  0  0  0  0  0
   -0.9629  -15.5636   17.9091 C   0  0  0  0  0  0  0  0  0  0  0  0
   -0.9482  -16.1244   18.9776 O   0  0  0  0  0  0  0  0  0  0  0  0
   -2.1912  -15.9650   16.9290 C   0  0  0  0  0  0  0  0  0  0  0  0
   -3.3220  -15.2584   17.2888 F   0  0  0  0  0  0  0  0  0  0  0  0
   -2.5910  -17.4034   16.9112 N   0  0  0  0  0  0  0  0  0  0  0  0
   -3.5215  -17.9912   17.7509 C   0  0  0  0  0  0  0  0  0  0  0  0
   -3.8361  -19.2221   17.2233 C   0  0  0  0  0  0  0  0  0  0  0  0
   -3.0799  -19.2999   16.0448 C   0  0  0  0  0  0  0  0  0  0  0  0
   -2.3444  -18.2022   15.8311 N   0  0  0  0  0  0  0  0  0  0  0  0
    6.0749   -8.0852   16.8109 H   0  0  0  0  0  0  0  0  0  0  0  0
    6.6389   -9.8205   16.4532 H   0  0  0  0  0  0  0  0  0  0  0  0
    3.7737   -8.8158   16.9181 H   0  0  0  0  0  0  0  0  0  0  0  0
    3.6825  -11.0544   15.4819 H   0  0  0  0  0  0  0  0  0  0  0  0
    4.8948  -11.6905   16.5963 H   0  0  0  0  0  0  0  0  0  0  0  0
    3.2547  -11.5210   18.4932 H   0  0  0  0  0  0  0  0  0  0  0  0
    2.0619  -10.7854   17.4238 H   0  0  0  0  0  0  0  0  0  0  0  0
    2.0249  -13.0442   16.0913 H   0  0  0  0  0  0  0  0  0  0  0  0
    3.0991  -13.6935   17.2673 H   0  0  0  0  0  0  0  0  0  0  0  0
    1.5093  -14.3875   18.7080 H   0  0  0  0  0  0  0  0  0  0  0  0
   -0.3480  -11.9873   18.3397 H   0  0  0  0  0  0  0  0  0  0  0  0
    0.9500  -12.1071   19.5343 H   0  0  0  0  0  0  0  0  0  0  0  0
   -0.4195  -13.2136   19.6018 H   0  0  0  0  0  0  0  0  0  0  0  0
   -0.4342  -14.1789   16.4576 H   0  0  0  0  0  0  0  0  0  0  0  0
   -1.9856  -15.6767   15.9031 H   0  0  0  0  0  0  0  0  0  0  0  0
   -3.8671  -17.4686   18.6323 H   0  0  0  0  0  0  0  0  0  0  0  0
   -4.5169  -19.9551   17.6311 H   0  0  0  0  0  0  0  0  0  0  0  0
   -3.0346  -20.1100   15.3265 H   0  0  0  0  0  0  0  0  0  0  0  0
  1  2  2  0
  2  3  1  0
  3  4  1  0
  4  5  1  0
  5  6  1  0
  6  7  1  0
  6  8  1  0
  8  9  1  0
  9 10  2  0
  9 11  1  0
 11 12  1  0
 11 13  1  0
 13 14  1  0
 14 15  2  0
 15 16  1  0
 16 17  2  0
 17 13  1  0
  1 18  1  0
  1 19  1  0
  2 20  1  0
  3 21  1  0
  3 22  1  0
  4 23  1  0
  4 24  1  0
  5 25  1  0
  5 26  1  0
  6 27  1  0
  7 28  1  0
  7 29  1  0
  7 30  1  0
  8 31  1  0
 11 32  1  0
 14 33  1  0
 15 34  1  0
 16 35  1  0
M  END
>  <Energy>  (255) 
116.94666890536762

>  <compound_id>  (255) 
53888

>  <target_id>  (255) 
1

>  <reference_id>  (255) 
112

>  <inspiration_ids>  (255) 
[112, 111]

>  <energy_score>  (255) 
8.676340756880194

>  <distance_score>  (255) 
15.238788651083757

>  <path>  (255) 
/opt/xchem-fragalysis-2/maxwin/BulkDock/SCRATCH/511024/C53888-P112/C53888-P112.minimised.mol

>  <scratch_subdir>  (255) 
/opt/xchem-fragalysis-2/maxwin/BulkDock/SCRATCH/511024/C53888-P112

>  <fragmenstein_runtime>  (255) 
20.52165174484253

>  <fragmenstein_outcome>  (255) 
too moved

>  <fragmenstein_mode>  (255) 
expansion

>  <fragmenstein_error>  (255) 


$$$$
C53888-P111
     RDKit          3D

 35 35  0  0  0  0  0  0  0  0999 V2000
   -2.0345  -15.0773   17.3903 C   0  0  0  0  0  0  0  0  0  0  0  0
   -2.5288  -16.3329   17.3210 C   0  0  0  0  0  0  0  0  0  0  0  0
   -3.8724  -16.7676   16.6839 C   0  0  0  0  0  0  0  0  0  0  0  0
   -4.5500  -18.2186   16.9943 C   0  0  0  0  0  0  0  0  0  0  0  0
   -6.0351  -18.6667   16.2619 C   0  0  0  0  0  0  0  0  0  0  0  0
   -7.0706  -20.0288   16.7535 C   0  0  0  0  0  0  0  0  0  0  0  0
   -8.2068  -19.5056   17.6177 C   0  0  0  0  0  0  0  0  0  0  0  0
   -7.6498  -20.9826   15.4497 N   0  0  0  0  0  0  0  0  0  0  0  0
   -8.8708  -21.6628   15.2641 C   0  0  0  0  0  0  0  0  0  0  0  0
   -9.7640  -21.8112   15.9870 O   0  0  0  0  0  0  0  0  0  0  0  0
   -9.1949  -22.2556   13.8095 C   0  0  0  0  0  0  0  0  0  0  0  0
   -8.2231  -21.9828   12.8931 F   0  0  0  0  0  0  0  0  0  0  0  0
   -9.8202  -23.5797   13.5088 N   0  0  0  0  0  0  0  0  0  0  0  0
  -10.0684  -23.9985   12.2086 C   0  0  0  0  0  0  0  0  0  0  0  0
  -10.6202  -25.2522   12.2864 C   0  0  0  0  0  0  0  0  0  0  0  0
  -10.6873  -25.5174   13.6598 C   0  0  0  0  0  0  0  0  0  0  0  0
  -10.2281  -24.5077   14.3979 N   0  0  0  0  0  0  0  0  0  0  0  0
   -2.5809  -14.2381   16.9826 H   0  0  0  0  0  0  0  0  0  0  0  0
   -1.0686  -14.8778   17.8428 H   0  0  0  0  0  0  0  0  0  0  0  0
   -1.9379  -17.1458   17.7395 H   0  0  0  0  0  0  0  0  0  0  0  0
   -3.7790  -16.6979   15.5970 H   0  0  0  0  0  0  0  0  0  0  0  0
   -4.6238  -16.0726   17.0601 H   0  0  0  0  0  0  0  0  0  0  0  0
   -4.7206  -18.2805   18.0758 H   0  0  0  0  0  0  0  0  0  0  0  0
   -3.8296  -19.0010   16.7285 H   0  0  0  0  0  0  0  0  0  0  0  0
   -6.6755  -17.7781   16.3320 H   0  0  0  0  0  0  0  0  0  0  0  0
   -5.8076  -18.8048   15.1995 H   0  0  0  0  0  0  0  0  0  0  0  0
   -6.4274  -20.6855   17.3504 H   0  0  0  0  0  0  0  0  0  0  0  0
   -8.9074  -18.8880   17.0538 H   0  0  0  0  0  0  0  0  0  0  0  0
   -8.7367  -20.3292   18.0893 H   0  0  0  0  0  0  0  0  0  0  0  0
   -7.8037  -18.8851   18.4255 H   0  0  0  0  0  0  0  0  0  0  0  0
   -7.0722  -21.1259   14.6410 H   0  0  0  0  0  0  0  0  0  0  0  0
  -10.0517  -21.6546   13.4818 H   0  0  0  0  0  0  0  0  0  0  0  0
   -9.8004  -23.3671   11.3716 H   0  0  0  0  0  0  0  0  0  0  0  0
  -10.9209  -25.8861   11.4655 H   0  0  0  0  0  0  0  0  0  0  0  0
  -11.0540  -26.4043   14.1591 H   0  0  0  0  0  0  0  0  0  0  0  0
  1  2  2  0
  2  3  1  0
  3  4  1  0
  4  5  1  0
  5  6  1  0
  6  7  1  0
  6  8  1  0
  8  9  1  0
  9 10  2  0
  9 11  1  0
 11 12  1  0
 11 13  1  0
 13 14  1  0
 14 15  2  0
 15 16  1  0
 16 17  2  0
 17 13  1  0
  1 18  1  0
  1 19  1  0
  2 20  1  0
  3 21  1  0
  3 22  1  0
  4 23  1  0
  4 24  1  0
  5 25  1  0
  5 26  1  0
  6 27  1  0
  7 28  1  0
  7 29  1  0
  7 30  1  0
  8 31  1  0
 11 32  1  0
 14 33  1  0
 15 34  1  0
 16 35  1  0
M  END
>  <Energy>  (256) 
162.27284888448685

>  <compound_id>  (256) 
53888

>  <target_id>  (256) 
1

>  <reference_id>  (256) 
111

>  <inspiration_ids>  (256) 
[112, 111]

>  <energy_score>  (256) 
54.00252073600143

>  <distance_score>  (256) 
16.43886337711918

>  <path>  (256) 
/opt/xchem-fragalysis-2/maxwin/BulkDock/SCRATCH/511024/C53888-P111/C53888-P111.minimised.mol

>  <scratch_subdir>  (256) 
/opt/xchem-fragalysis-2/maxwin/BulkDock/SCRATCH/511024/C53888-P111

>  <fragmenstein_runtime>  (256) 
18.819673776626587

>  <fragmenstein_outcome>  (256) 
too moved

>  <fragmenstein_mode>  (256) 
expansion

>  <fragmenstein_error>  (256) 


$$$$
C53890-P112
     RDKit          3D

 34 34  0  0  0  0  0  0  0  0999 V2000
    7.8665  -12.0777   12.7758 C   0  0  0  0  0  0  0  0  0  0  0  0
    7.7208  -13.5575   12.3615 C   0  0  0  0  0  0  0  0  0  0  0  0
    7.2487  -14.6138   13.4531 C   0  0  0  0  0  0  0  0  0  0  0  0
    8.3957  -14.8844   14.4646 C   0  0  0  0  0  0  0  0  0  0  0  0
    8.9724  -13.6726   15.2148 C   0  0  0  0  0  0  0  0  0  0  0  0
    6.6006  -16.0072   12.7417 C   0  0  0  0  0  0  0  0  0  0  0  0
    5.6154  -17.2338   13.4176 C   0  0  0  0  0  0  0  0  0  0  0  0
    5.8878  -17.5896   14.5394 O   0  0  0  0  0  0  0  0  0  0  0  0
    4.5736  -17.7744   12.4289 N   0  0  0  0  0  0  0  0  0  0  0  0
    3.5079  -19.1533   12.5299 S   0  0  0  0  0  0  0  0  0  0  0  0
    4.3363  -20.3079   12.8299 O   0  0  0  0  0  0  0  0  0  0  0  0
    2.8242  -19.1517   11.2396 O   0  0  0  0  0  0  0  0  0  0  0  0
    2.0908  -19.4869   13.6441 C   0  0  0  0  0  0  0  0  0  0  0  0
    2.2395  -20.1848   14.8811 C   0  0  0  0  0  0  0  0  0  0  0  0
    0.9864  -20.6517   15.2171 C   0  0  0  0  0  0  0  0  0  0  0  0
    0.1592  -20.2460   14.2179 N   0  0  0  0  0  0  0  0  0  0  0  0
    0.7773  -19.5215   13.2600 N   0  0  0  0  0  0  0  0  0  0  0  0
    7.0531  -11.7780   13.4430 H   0  0  0  0  0  0  0  0  0  0  0  0
    7.8219  -11.4451   11.8826 H   0  0  0  0  0  0  0  0  0  0  0  0
    8.8233  -11.8702   13.2542 H   0  0  0  0  0  0  0  0  0  0  0  0
    8.6649  -13.8998   11.9203 H   0  0  0  0  0  0  0  0  0  0  0  0
    6.9863  -13.5822   11.5471 H   0  0  0  0  0  0  0  0  0  0  0  0
    6.4397  -14.1672   14.0186 H   0  0  0  0  0  0  0  0  0  0  0  0
    9.2144  -15.4059   13.9544 H   0  0  0  0  0  0  0  0  0  0  0  0
    8.0075  -15.5859   15.2139 H   0  0  0  0  0  0  0  0  0  0  0  0
    8.1851  -12.9795   15.5236 H   0  0  0  0  0  0  0  0  0  0  0  0
    9.7188  -13.1535   14.6104 H   0  0  0  0  0  0  0  0  0  0  0  0
    9.4899  -14.0170   16.1169 H   0  0  0  0  0  0  0  0  0  0  0  0
    7.4596  -16.5602   12.3376 H   0  0  0  0  0  0  0  0  0  0  0  0
    6.0367  -15.6555   11.8735 H   0  0  0  0  0  0  0  0  0  0  0  0
    4.5562  -17.1858   11.6036 H   0  0  0  0  0  0  0  0  0  0  0  0
    3.1677  -20.3942   15.3948 H   0  0  0  0  0  0  0  0  0  0  0  0
    0.6330  -21.2566   16.0392 H   0  0  0  0  0  0  0  0  0  0  0  0
   -0.8308  -20.4480   14.1180 H   0  0  0  0  0  0  0  0  0  0  0  0
  1  2  1  0
  2  3  1  0
  3  4  1  0
  4  5  1  0
  3  6  1  0
  6  7  1  0
  7  8  2  0
  7  9  1  0
  9 10  1  0
 10 11  2  0
 10 12  2  0
 10 13  1  0
 13 14  1  0
 14 15  2  0
 15 16  1  0
 16 17  1  0
 17 13  2  0
  1 18  1  0
  1 19  1  0
  1 20  1  0
  2 21  1  0
  2 22  1  0
  3 23  1  0
  4 24  1  0
  4 25  1  0
  5 26  1  0
  5 27  1  0
  5 28  1  0
  6 29  1  0
  6 30  1  0
  9 31  1  0
 14 32  1  0
 15 33  1  0
 16 34  1  0
M  END
>  <Energy>  (257) 
43.22555888748569

>  <compound_id>  (257) 
53890

>  <target_id>  (257) 
1

>  <reference_id>  (257) 
112

>  <inspiration_ids>  (257) 
[112, 111]

>  <energy_score>  (257) 
3.9306040215420808

>  <distance_score>  (257) 
14.694020124803957

>  <path>  (257) 
/opt/xchem-fragalysis-2/maxwin/BulkDock/SCRATCH/511024/C53890-P112/C53890-P112.minimised.mol

>  <scratch_subdir>  (257) 
/opt/xchem-fragalysis-2/maxwin/BulkDock/SCRATCH/511024/C53890-P112

>  <fragmenstein_runtime>  (257) 
37.30264925956726

>  <fragmenstein_outcome>  (257) 
too moved

>  <fragmenstein_mode>  (257) 
expansion

>  <fragmenstein_error>  (257) 


$$$$
C53890-P111
     RDKit          3D

 34 34  0  0  0  0  0  0  0  0999 V2000
    7.4690  -10.6605   13.0457 C   0  0  0  0  0  0  0  0  0  0  0  0
    7.5180  -12.0707   12.4342 C   0  0  0  0  0  0  0  0  0  0  0  0
    7.4090  -13.2514   13.4613 C   0  0  0  0  0  0  0  0  0  0  0  0
    8.5781  -13.1793   14.4985 C   0  0  0  0  0  0  0  0  0  0  0  0
    9.9682  -12.7884   13.9890 C   0  0  0  0  0  0  0  0  0  0  0  0
    7.1526  -14.7368   12.7515 C   0  0  0  0  0  0  0  0  0  0  0  0
    6.3509  -15.9034   13.5789 C   0  0  0  0  0  0  0  0  0  0  0  0
    6.4952  -15.8273   14.7770 O   0  0  0  0  0  0  0  0  0  0  0  0
    5.5798  -16.9366   12.7295 N   0  0  0  0  0  0  0  0  0  0  0  0
    4.7585  -18.4001   13.1916 S   0  0  0  0  0  0  0  0  0  0  0  0
    5.5517  -19.4635   12.6032 O   0  0  0  0  0  0  0  0  0  0  0  0
    4.5022  -18.3579   14.6155 O   0  0  0  0  0  0  0  0  0  0  0  0
    3.1591  -18.8947   12.5100 C   0  0  0  0  0  0  0  0  0  0  0  0
    2.6141  -18.5251   11.2607 C   0  0  0  0  0  0  0  0  0  0  0  0
    1.4858  -19.3053   11.1118 C   0  0  0  0  0  0  0  0  0  0  0  0
    1.3726  -20.0495   12.2469 N   0  0  0  0  0  0  0  0  0  0  0  0
    2.4095  -19.8800   13.0762 N   0  0  0  0  0  0  0  0  0  0  0  0
    6.5020  -10.5001   13.5342 H   0  0  0  0  0  0  0  0  0  0  0  0
    7.5738   -9.9099   12.2567 H   0  0  0  0  0  0  0  0  0  0  0  0
    8.2463  -10.4983   13.7929 H   0  0  0  0  0  0  0  0  0  0  0  0
    8.4297  -12.1827   11.8367 H   0  0  0  0  0  0  0  0  0  0  0  0
    6.6808  -12.1556   11.7301 H   0  0  0  0  0  0  0  0  0  0  0  0
    6.4926  -13.0783   14.0402 H   0  0  0  0  0  0  0  0  0  0  0  0
    8.2990  -12.4575   15.2770 H   0  0  0  0  0  0  0  0  0  0  0  0
    8.6517  -14.1491   15.0042 H   0  0  0  0  0  0  0  0  0  0  0  0
   10.2819  -13.4599   13.1836 H   0  0  0  0  0  0  0  0  0  0  0  0
   10.6967  -12.8754   14.8019 H   0  0  0  0  0  0  0  0  0  0  0  0
   10.0153  -11.7619   13.6208 H   0  0  0  0  0  0  0  0  0  0  0  0
    6.5868  -14.5705   11.8278 H   0  0  0  0  0  0  0  0  0  0  0  0
    8.1265  -15.1571   12.4765 H   0  0  0  0  0  0  0  0  0  0  0  0
    5.7366  -16.7464   11.7446 H   0  0  0  0  0  0  0  0  0  0  0  0
    3.0140  -17.8318   10.5371 H   0  0  0  0  0  0  0  0  0  0  0  0
    0.7941  -19.3997   10.2896 H   0  0  0  0  0  0  0  0  0  0  0  0
    0.6602  -20.7265   12.5080 H   0  0  0  0  0  0  0  0  0  0  0  0
  1  2  1  0
  2  3  1  0
  3  4  1  0
  4  5  1  0
  3  6  1  0
  6  7  1  0
  7  8  2  0
  7  9  1  0
  9 10  1  0
 10 11  2  0
 10 12  2  0
 10 13  1  0
 13 14  1  0
 14 15  2  0
 15 16  1  0
 16 17  1  0
 17 13  2  0
  1 18  1  0
  1 19  1  0
  1 20  1  0
  2 21  1  0
  2 22  1  0
  3 23  1  0
  4 24  1  0
  4 25  1  0
  5 26  1  0
  5 27  1  0
  5 28  1  0
  6 29  1  0
  6 30  1  0
  9 31  1  0
 14 32  1  0
 15 33  1  0
 16 34  1  0
M  END
>  <Energy>  (258) 
27.786931177855976

>  <compound_id>  (258) 
53890

>  <target_id>  (258) 
1

>  <reference_id>  (258) 
111

>  <inspiration_ids>  (258) 
[112, 111]

>  <energy_score>  (258) 
-11.508023688086155

>  <distance_score>  (258) 
14.58144531584948

>  <path>  (258) 
/opt/xchem-fragalysis-2/maxwin/BulkDock/SCRATCH/511024/C53890-P111/C53890-P111.minimised.mol

>  <scratch_subdir>  (258) 
/opt/xchem-fragalysis-2/maxwin/BulkDock/SCRATCH/511024/C53890-P111

>  <fragmenstein_runtime>  (258) 
36.08337998390198

>  <fragmenstein_outcome>  (258) 
too moved

>  <fragmenstein_mode>  (258) 
expansion

>  <fragmenstein_error>  (258) 


$$$$
C53892-P112
     RDKit          3D

 28 28  0  0  0  0  0  0  0  0999 V2000
    6.0520   -7.6836   15.1615 C   0  0  0  0  0  0  0  0  0  0  0  0
    5.1869   -7.7875   14.3321 C   0  0  0  0  0  0  0  0  0  0  0  0
    4.1068   -7.9713   13.3264 C   0  0  0  0  0  0  0  0  0  0  0  0
    2.9663   -8.8400   13.9129 C   0  0  0  0  0  0  0  0  0  0  0  0
    1.8346   -9.3906   12.9447 C   0  0  0  0  0  0  0  0  0  0  0  0
    0.8597  -10.4027   13.7091 C   0  0  0  0  0  0  0  0  0  0  0  0
   -0.2771  -11.3118   12.9252 N   0  0  0  0  0  0  0  0  0  0  0  0
   -0.4699  -13.3313   13.3830 S   0  0  0  0  0  0  0  0  0  0  0  0
   -0.9684  -14.1313   12.2758 O   0  0  0  0  0  0  0  0  0  0  0  0
    0.9482  -13.4186   13.2480 O   0  0  0  0  0  0  0  0  0  0  0  0
   -1.0769  -14.0115   15.6210 C   0  0  0  0  0  0  0  0  0  0  0  0
   -2.3825  -13.8516   16.7188 C   0  0  0  0  0  0  0  0  0  0  0  0
   -2.0038  -13.8158   18.0291 C   0  0  0  0  0  0  0  0  0  0  0  0
   -0.6692  -13.8553   17.9735 N   0  0  0  0  0  0  0  0  0  0  0  0
   -0.0875  -13.9403   16.7674 N   0  0  0  0  0  0  0  0  0  0  0  0
    6.8273   -7.5914   15.8854 H   0  0  0  0  0  0  0  0  0  0  0  0
    3.7074   -7.0012   13.0127 H   0  0  0  0  0  0  0  0  0  0  0  0
    4.5179   -8.4643   12.4386 H   0  0  0  0  0  0  0  0  0  0  0  0
    3.4216   -9.7084   14.4061 H   0  0  0  0  0  0  0  0  0  0  0  0
    2.4709   -8.2736   14.7130 H   0  0  0  0  0  0  0  0  0  0  0  0
    2.2803   -9.8827   12.0773 H   0  0  0  0  0  0  0  0  0  0  0  0
    1.2420   -8.5515   12.5632 H   0  0  0  0  0  0  0  0  0  0  0  0
    1.4532  -11.0686   14.3243 H   0  0  0  0  0  0  0  0  0  0  0  0
    0.2620   -9.7780   14.3851 H   0  0  0  0  0  0  0  0  0  0  0  0
    0.0369  -11.4476   11.9582 H   0  0  0  0  0  0  0  0  0  0  0  0
   -3.3483  -14.2126   16.4461 H   0  0  0  0  0  0  0  0  0  0  0  0
   -2.5593  -13.8504   18.9553 H   0  0  0  0  0  0  0  0  0  0  0  0
   -0.0399  -13.8505   18.7686 H   0  0  0  0  0  0  0  0  0  0  0  0
  1  2  3  0
  2  3  1  0
  3  4  1  0
  4  5  1  0
  5  6  1  0
  6  7  1  0
  7  8  1  0
  8  9  2  0
  8 10  2  0
  8 11  1  0
 11 12  1  0
 12 13  2  0
 13 14  1  0
 14 15  1  0
 15 11  2  0
  1 16  1  0
  3 17  1  0
  3 18  1  0
  4 19  1  0
  4 20  1  0
  5 21  1  0
  5 22  1  0
  6 23  1  0
  6 24  1  0
  7 25  1  0
 12 26  1  0
 13 27  1  0
 14 28  1  0
M  END
>  <Energy>  (259) 
298.39203605326907

>  <compound_id>  (259) 
53892

>  <target_id>  (259) 
1

>  <reference_id>  (259) 
112

>  <inspiration_ids>  (259) 
[112, 111]

>  <energy_score>  (259) 
250.14538852319242

>  <distance_score>  (259) 
14.880772425312136

>  <path>  (259) 
/opt/xchem-fragalysis-2/maxwin/BulkDock/SCRATCH/511024/C53892-P112/C53892-P112.minimised.mol

>  <scratch_subdir>  (259) 
/opt/xchem-fragalysis-2/maxwin/BulkDock/SCRATCH/511024/C53892-P112

>  <fragmenstein_runtime>  (259) 
13.824686288833618

>  <fragmenstein_outcome>  (259) 
too moved

>  <fragmenstein_mode>  (259) 
expansion

>  <fragmenstein_error>  (259) 


$$$$
C53892-P111
     RDKit          3D

 28 28  0  0  0  0  0  0  0  0999 V2000
    6.2368   -8.0083   11.6203 C   0  0  0  0  0  0  0  0  0  0  0  0
    5.1411   -8.2038   12.0756 C   0  0  0  0  0  0  0  0  0  0  0  0
    3.8245   -8.4748   12.6979 C   0  0  0  0  0  0  0  0  0  0  0  0
    2.8593   -9.4203   11.8831 C   0  0  0  0  0  0  0  0  0  0  0  0
    1.7311  -10.0158   12.8080 C   0  0  0  0  0  0  0  0  0  0  0  0
    0.4513  -10.9802   12.4793 C   0  0  0  0  0  0  0  0  0  0  0  0
    0.3741  -12.2954   11.5448 N   0  0  0  0  0  0  0  0  0  0  0  0
   -0.1984  -14.0713   12.0009 S   0  0  0  0  0  0  0  0  0  0  0  0
    0.6034  -15.1602   11.5167 O   0  0  0  0  0  0  0  0  0  0  0  0
   -0.4493  -13.8897   13.3961 O   0  0  0  0  0  0  0  0  0  0  0  0
   -1.7669  -14.8141   11.1589 C   0  0  0  0  0  0  0  0  0  0  0  0
   -3.2899  -15.1662   11.1235 C   0  0  0  0  0  0  0  0  0  0  0  0
   -4.5972  -14.6640   12.4410 C   0  0  0  0  0  0  0  0  0  0  0  0
   -3.5317  -14.3055   12.8745 N   0  0  0  0  0  0  0  0  0  0  0  0
   -2.9195  -14.4370   11.6864 N   0  0  0  0  0  0  0  0  0  0  0  0
    7.2060   -7.8615   11.1989 H   0  0  0  0  0  0  0  0  0  0  0  0
    4.0104   -8.9294   13.6790 H   0  0  0  0  0  0  0  0  0  0  0  0
    3.3049   -7.5277   12.8856 H   0  0  0  0  0  0  0  0  0  0  0  0
    2.3957   -8.8491   11.0705 H   0  0  0  0  0  0  0  0  0  0  0  0
    3.4262  -10.2309   11.4177 H   0  0  0  0  0  0  0  0  0  0  0  0
    1.2425   -9.1248   13.2350 H   0  0  0  0  0  0  0  0  0  0  0  0
    2.2232  -10.4445   13.6842 H   0  0  0  0  0  0  0  0  0  0  0  0
    0.0440  -11.2883   13.4391 H   0  0  0  0  0  0  0  0  0  0  0  0
   -0.2978  -10.3108   12.0328 H   0  0  0  0  0  0  0  0  0  0  0  0
   -0.4222  -12.0551   10.9570 H   0  0  0  0  0  0  0  0  0  0  0  0
   -3.2977  -15.6414   10.1061 H   0  0  0  0  0  0  0  0  0  0  0  0
   -5.6669  -14.9449   12.4434 H   0  0  0  0  0  0  0  0  0  0  0  0
   -2.9396  -14.4014   13.6959 H   0  0  0  0  0  0  0  0  0  0  0  0
  1  2  3  0
  2  3  1  0
  3  4  1  0
  4  5  1  0
  5  6  1  0
  6  7  1  0
  7  8  1  0
  8  9  2  0
  8 10  2  0
  8 11  1  0
 11 12  1  0
 12 13  2  0
 13 14  1  0
 14 15  1  0
 15 11  2  0
  1 16  1  0
  3 17  1  0
  3 18  1  0
  4 19  1  0
  4 20  1  0
  5 21  1  0
  5 22  1  0
  6 23  1  0
  6 24  1  0
  7 25  1  0
 12 26  1  0
 13 27  1  0
 14 28  1  0
M  END
>  <Energy>  (260) 
535.1805401026528

>  <compound_id>  (260) 
53892

>  <target_id>  (260) 
1

>  <reference_id>  (260) 
111

>  <inspiration_ids>  (260) 
[112, 111]

>  <energy_score>  (260) 
486.9338925725753

>  <distance_score>  (260) 
14.507471019672275

>  <path>  (260) 
/opt/xchem-fragalysis-2/maxwin/BulkDock/SCRATCH/511024/C53892-P111/C53892-P111.minimised.mol

>  <scratch_subdir>  (260) 
/opt/xchem-fragalysis-2/maxwin/BulkDock/SCRATCH/511024/C53892-P111

>  <fragmenstein_runtime>  (260) 
13.527270317077637

>  <fragmenstein_outcome>  (260) 
too moved

>  <fragmenstein_mode>  (260) 
expansion

>  <fragmenstein_error>  (260) 


$$$$
C53893-P112
     RDKit          3D

 22 22  0  0  0  0  0  0  0  0999 V2000
    0.0680  -13.7446   12.1013 C   0  0  0  0  0  0  0  0  0  0  0  0
   -0.9856  -15.1869   11.5947 C   0  0  0  0  0  0  0  0  0  0  0  0
   -2.1666  -15.9759   12.3418 O   0  0  0  0  0  0  0  0  0  0  0  0
   -2.8506  -17.0838   11.6179 C   0  0  0  0  0  0  0  0  0  0  0  0
   -2.5317  -17.3360   10.4570 O   0  0  0  0  0  0  0  0  0  0  0  0
   -4.0953  -17.9888   12.4634 C   0  0  0  0  0  0  0  0  0  0  0  0
   -5.3336  -17.4043   12.8412 O   0  0  0  0  0  0  0  0  0  0  0  0
   -4.7178  -19.3675   11.8778 C   0  0  0  0  0  0  0  0  0  0  0  0
   -4.2341  -20.6472   11.6655 C   0  0  0  0  0  0  0  0  0  0  0  0
   -5.3613  -21.4929   11.5326 C   0  0  0  0  0  0  0  0  0  0  0  0
   -6.5117  -20.8325   11.6607 N   0  0  0  0  0  0  0  0  0  0  0  0
   -6.0996  -19.5513   11.7476 N   0  0  0  0  0  0  0  0  0  0  0  0
    1.0781  -14.0884   11.9858 H   0  0  0  0  0  0  0  0  0  0  0  0
   -0.1311  -12.8919   11.4703 H   0  0  0  0  0  0  0  0  0  0  0  0
   -0.1818  -13.4524   13.0995 H   0  0  0  0  0  0  0  0  0  0  0  0
   -1.5446  -14.8126   10.7513 H   0  0  0  0  0  0  0  0  0  0  0  0
   -0.2834  -15.9682   11.2863 H   0  0  0  0  0  0  0  0  0  0  0  0
   -3.5803  -18.2996   13.3835 H   0  0  0  0  0  0  0  0  0  0  0  0
   -5.1067  -16.6505   13.4131 H   0  0  0  0  0  0  0  0  0  0  0  0
   -3.2012  -20.9637   11.7101 H   0  0  0  0  0  0  0  0  0  0  0  0
   -5.3619  -22.5676   11.3884 H   0  0  0  0  0  0  0  0  0  0  0  0
   -6.7896  -18.8120   11.8187 H   0  0  0  0  0  0  0  0  0  0  0  0
  1  2  1  0
  2  3  1  0
  3  4  1  0
  4  5  2  0
  4  6  1  0
  6  7  1  0
  6  8  1  0
  8  9  2  0
  9 10  1  0
 10 11  2  0
 11 12  1  0
 12  8  1  0
  1 13  1  0
  1 14  1  0
  1 15  1  0
  2 16  1  0
  2 17  1  0
  6 18  1  0
  7 19  1  0
  9 20  1  0
 10 21  1  0
 12 22  1  0
M  END
>  <Energy>  (261) 
127.80152254055351

>  <compound_id>  (261) 
53893

>  <target_id>  (261) 
1

>  <reference_id>  (261) 
112

>  <inspiration_ids>  (261) 
[112, 111]

>  <energy_score>  (261) 
69.87539568708732

>  <distance_score>  (261) 
14.708912682404266

>  <path>  (261) 
/opt/xchem-fragalysis-2/maxwin/BulkDock/SCRATCH/511024/C53893-P112/C53893-P112.minimised.mol

>  <scratch_subdir>  (261) 
/opt/xchem-fragalysis-2/maxwin/BulkDock/SCRATCH/511024/C53893-P112

>  <fragmenstein_runtime>  (261) 
2.156444787979126

>  <fragmenstein_outcome>  (261) 
too moved

>  <fragmenstein_mode>  (261) 
expansion

>  <fragmenstein_error>  (261) 


$$$$
C53893-P111
     RDKit          3D

 22 22  0  0  0  0  0  0  0  0999 V2000
   -0.1558  -15.3724   11.3265 C   0  0  0  0  0  0  0  0  0  0  0  0
   -1.6254  -16.2505   10.6925 C   0  0  0  0  0  0  0  0  0  0  0  0
   -2.6654  -17.1229   11.4651 O   0  0  0  0  0  0  0  0  0  0  0  0
   -3.9687  -17.3925   10.9050 C   0  0  0  0  0  0  0  0  0  0  0  0
   -4.2870  -16.9420    9.8030 O   0  0  0  0  0  0  0  0  0  0  0  0
   -5.0411  -18.3362   11.8399 C   0  0  0  0  0  0  0  0  0  0  0  0
   -4.7392  -19.6955   12.0999 O   0  0  0  0  0  0  0  0  0  0  0  0
   -6.6021  -18.3879   11.4301 C   0  0  0  0  0  0  0  0  0  0  0  0
   -7.5308  -17.4723   10.9929 C   0  0  0  0  0  0  0  0  0  0  0  0
   -8.7594  -18.1581   10.8013 C   0  0  0  0  0  0  0  0  0  0  0  0
   -8.7009  -19.4304   11.1484 N   0  0  0  0  0  0  0  0  0  0  0  0
   -7.4115  -19.5232   11.5503 N   0  0  0  0  0  0  0  0  0  0  0  0
    0.6258  -15.6282   10.6154 H   0  0  0  0  0  0  0  0  0  0  0  0
    0.0948  -15.8814   12.2400 H   0  0  0  0  0  0  0  0  0  0  0  0
   -0.3678  -14.3181   11.4688 H   0  0  0  0  0  0  0  0  0  0  0  0
   -1.2141  -16.9530    9.9594 H   0  0  0  0  0  0  0  0  0  0  0  0
   -2.2208  -15.4908   10.1833 H   0  0  0  0  0  0  0  0  0  0  0  0
   -5.0399  -17.8174   12.8085 H   0  0  0  0  0  0  0  0  0  0  0  0
   -5.0090  -20.2652   11.3486 H   0  0  0  0  0  0  0  0  0  0  0  0
   -7.3393  -16.4296   10.7776 H   0  0  0  0  0  0  0  0  0  0  0  0
   -9.6589  -17.7415   10.3783 H   0  0  0  0  0  0  0  0  0  0  0  0
   -7.0739  -20.4314   11.8582 H   0  0  0  0  0  0  0  0  0  0  0  0
  1  2  1  0
  2  3  1  0
  3  4  1  0
  4  5  2  0
  4  6  1  0
  6  7  1  0
  6  8  1  0
  8  9  2  0
  9 10  1  0
 10 11  2  0
 11 12  1  0
 12  8  1  0
  1 13  1  0
  1 14  1  0
  1 15  1  0
  2 16  1  0
  2 17  1  0
  6 18  1  0
  7 19  1  0
  9 20  1  0
 10 21  1  0
 12 22  1  0
M  END
>  <Energy>  (262) 
107.27136766475616

>  <compound_id>  (262) 
53893

>  <target_id>  (262) 
1

>  <reference_id>  (262) 
111

>  <inspiration_ids>  (262) 
[112, 111]

>  <energy_score>  (262) 
49.345240811289884

>  <distance_score>  (262) 
15.297696355057258

>  <path>  (262) 
/opt/xchem-fragalysis-2/maxwin/BulkDock/SCRATCH/511024/C53893-P111/C53893-P111.minimised.mol

>  <scratch_subdir>  (262) 
/opt/xchem-fragalysis-2/maxwin/BulkDock/SCRATCH/511024/C53893-P111

>  <fragmenstein_runtime>  (262) 
3.0025577545166016

>  <fragmenstein_outcome>  (262) 
too moved

>  <fragmenstein_mode>  (262) 
expansion

>  <fragmenstein_error>  (262) 


$$$$
C68657-P101
     RDKit          3D

 47 48  0  0  0  0  0  0  0  0999 V2000
   -7.0181  -19.4867   22.7260 C   0  0  0  0  0  0  0  0  0  0  0  0
   -6.8632  -18.5639   21.5538 C   0  0  0  0  0  0  0  0  0  0  0  0
   -6.0848  -18.7268   20.2789 C   0  0  0  0  0  0  0  0  0  0  0  0
   -5.8362  -19.3620   19.1072 C   0  0  0  0  0  0  0  0  0  0  0  0
   -4.6064  -19.0122   18.4997 N   0  0  0  0  0  0  0  0  0  0  0  0
   -4.1528  -17.9896   19.1860 C   0  0  0  0  0  0  0  0  0  0  0  0
   -2.5995  -17.3312   19.3223 C   0  0  0  0  0  0  0  0  0  0  0  0
   -2.6077  -15.8418   19.8396 C   0  0  0  0  0  0  0  0  0  0  0  0
   -3.2239  -15.7777   20.8434 O   0  0  0  0  0  0  0  0  0  0  0  0
   -1.9787  -14.6837   19.0167 N   0  0  0  0  0  0  0  0  0  0  0  0
   -2.0801  -12.7632   19.2411 C   0  0  0  0  0  0  0  0  0  0  0  0
   -1.6247  -12.5687   17.8901 C   0  0  0  0  0  0  0  0  0  0  0  0
   -3.1155  -11.4649   19.3603 C   0  0  0  0  0  0  0  0  0  0  0  0
   -2.2301  -10.1783   19.5364 N   0  0  0  0  0  0  0  0  0  0  0  0
   -1.9467   -9.0570   18.6050 C   0  0  0  0  0  0  0  0  0  0  0  0
   -2.3918   -8.8159   17.5119 O   0  0  0  0  0  0  0  0  0  0  0  0
   -0.7453   -8.0728   19.1581 C   0  0  0  0  0  0  0  0  0  0  0  0
   -1.0732   -6.5732   19.2652 C   0  0  0  0  0  0  0  0  0  0  0  0
    0.2772   -5.8415   19.4526 C   0  0  0  0  0  0  0  0  0  0  0  0
    1.2216   -6.7034   18.6660 C   0  0  0  0  0  0  0  0  0  0  0  0
    2.3942   -6.4207   18.4310 O   0  0  0  0  0  0  0  0  0  0  0  0
    0.5206   -7.9640   18.2167 C   0  0  0  0  0  0  0  0  0  0  0  0
   -5.2604  -17.6825   20.0024 N   0  0  0  0  0  0  0  0  0  0  0  0
   -6.4800  -20.4154   22.8286 H   0  0  0  0  0  0  0  0  0  0  0  0
   -6.6833  -18.9387   23.6030 H   0  0  0  0  0  0  0  0  0  0  0  0
   -8.0294  -19.7564   22.8761 H   0  0  0  0  0  0  0  0  0  0  0  0
   -6.1879  -17.9058   22.0831 H   0  0  0  0  0  0  0  0  0  0  0  0
   -7.6769  -17.8569   21.4605 H   0  0  0  0  0  0  0  0  0  0  0  0
   -6.4435  -20.0832   18.6336 H   0  0  0  0  0  0  0  0  0  0  0  0
   -2.2315  -17.8353   20.2216 H   0  0  0  0  0  0  0  0  0  0  0  0
   -1.8650  -17.7643   18.6692 H   0  0  0  0  0  0  0  0  0  0  0  0
   -1.5998  -15.0483   18.1840 H   0  0  0  0  0  0  0  0  0  0  0  0
   -1.5853  -12.5154   20.1860 H   0  0  0  0  0  0  0  0  0  0  0  0
   -2.3529  -13.0310   17.2273 H   0  0  0  0  0  0  0  0  0  0  0  0
   -0.6995  -13.0966   17.6985 H   0  0  0  0  0  0  0  0  0  0  0  0
   -1.5382  -11.5095   17.7537 H   0  0  0  0  0  0  0  0  0  0  0  0
   -3.7360  -11.3124   18.4758 H   0  0  0  0  0  0  0  0  0  0  0  0
   -3.7428  -11.5299   20.2431 H   0  0  0  0  0  0  0  0  0  0  0  0
   -1.6104  -10.1097   20.3378 H   0  0  0  0  0  0  0  0  0  0  0  0
   -0.4370   -8.4073   20.1565 H   0  0  0  0  0  0  0  0  0  0  0  0
   -1.7548   -6.3681   20.0969 H   0  0  0  0  0  0  0  0  0  0  0  0
   -1.5669   -6.2263   18.3486 H   0  0  0  0  0  0  0  0  0  0  0  0
    0.2392   -4.8249   19.0564 H   0  0  0  0  0  0  0  0  0  0  0  0
    0.5798   -5.8446   20.5033 H   0  0  0  0  0  0  0  0  0  0  0  0
    1.2407   -8.7715   18.3104 H   0  0  0  0  0  0  0  0  0  0  0  0
    0.2227   -7.8453   17.1702 H   0  0  0  0  0  0  0  0  0  0  0  0
   -5.2203  -17.0436   20.7768 H   0  0  0  0  0  0  0  0  0  0  0  0
  1  2  1  0
  2  3  1  0
  3  4  2  0
  4  5  1  0
  5  6  2  0
  6  7  1  0
  7  8  1  0
  8  9  2  0
  8 10  1  0
 10 11  1  0
 11 12  1  0
 11 13  1  0
 13 14  1  0
 14 15  1  0
 15 16  2  0
 15 17  1  0
 17 18  1  0
 18 19  1  0
 19 20  1  0
 20 21  2  0
 20 22  1  0
  6 23  1  0
 23  3  1  0
 22 17  1  0
  1 24  1  0
  1 25  1  0
  1 26  1  0
  2 27  1  0
  2 28  1  0
  4 29  1  0
  7 30  1  0
  7 31  1  0
 10 32  1  0
 11 33  1  0
 12 34  1  0
 12 35  1  0
 12 36  1  0
 13 37  1  0
 13 38  1  0
 14 39  1  0
 17 40  1  0
 18 41  1  0
 18 42  1  0
 19 43  1  0
 19 44  1  0
 22 45  1  0
 22 46  1  0
 23 47  1  0
M  END
>  <Energy>  (263) 
226.95251545309509

>  <compound_id>  (263) 
68657

>  <target_id>  (263) 
1

>  <reference_id>  (263) 
101

>  <inspiration_ids>  (263) 
[101, 98]

>  <energy_score>  (263) 
198.1963253338792

>  <distance_score>  (263) 
13.903377233975894

>  <path>  (263) 
/opt/xchem-fragalysis-2/maxwin/BulkDock/SCRATCH/511024/C68657-P101/C68657-P101.minimised.mol

>  <scratch_subdir>  (263) 
/opt/xchem-fragalysis-2/maxwin/BulkDock/SCRATCH/511024/C68657-P101

>  <fragmenstein_runtime>  (263) 
32.690502643585205

>  <fragmenstein_outcome>  (263) 
too moved

>  <fragmenstein_mode>  (263) 
expansion

>  <fragmenstein_error>  (263) 


$$$$
C68657-P98
     RDKit          3D

 47 48  0  0  0  0  0  0  0  0999 V2000
   -5.4852  -19.5456   20.0403 C   0  0  0  0  0  0  0  0  0  0  0  0
   -4.1382  -19.2561   19.3732 C   0  0  0  0  0  0  0  0  0  0  0  0
   -4.1060  -17.9854   18.6874 C   0  0  0  0  0  0  0  0  0  0  0  0
   -5.2257  -17.4281   18.2738 C   0  0  0  0  0  0  0  0  0  0  0  0
   -5.0477  -16.4553   17.2587 N   0  0  0  0  0  0  0  0  0  0  0  0
   -3.8028  -16.1906   17.1385 C   0  0  0  0  0  0  0  0  0  0  0  0
   -3.1886  -14.4047   16.8172 C   0  0  0  0  0  0  0  0  0  0  0  0
   -2.0046  -14.3731   16.2576 C   0  0  0  0  0  0  0  0  0  0  0  0
   -2.0364  -14.9552   15.2353 O   0  0  0  0  0  0  0  0  0  0  0  0
   -0.8242  -13.7356   17.0249 N   0  0  0  0  0  0  0  0  0  0  0  0
    1.0003  -13.7803   16.6814 C   0  0  0  0  0  0  0  0  0  0  0  0
    2.1316  -14.6438   17.6883 C   0  0  0  0  0  0  0  0  0  0  0  0
    1.8229  -12.4494   15.3482 C   0  0  0  0  0  0  0  0  0  0  0  0
    2.9448  -11.4262   15.6701 N   0  0  0  0  0  0  0  0  0  0  0  0
    3.2617  -10.1465   15.0742 C   0  0  0  0  0  0  0  0  0  0  0  0
    2.6902   -9.5141   14.2328 O   0  0  0  0  0  0  0  0  0  0  0  0
    4.5987   -9.5968   15.6284 C   0  0  0  0  0  0  0  0  0  0  0  0
    4.9959   -8.2394   14.9895 C   0  0  0  0  0  0  0  0  0  0  0  0
    4.7800   -7.1637   16.0423 C   0  0  0  0  0  0  0  0  0  0  0  0
    5.0853   -7.9412   17.2762 C   0  0  0  0  0  0  0  0  0  0  0  0
    5.6698   -7.4797   18.2494 O   0  0  0  0  0  0  0  0  0  0  0  0
    4.6393   -9.3733   17.1473 C   0  0  0  0  0  0  0  0  0  0  0  0
   -3.1999  -17.0651   18.2654 N   0  0  0  0  0  0  0  0  0  0  0  0
   -6.2633  -19.6695   19.2848 H   0  0  0  0  0  0  0  0  0  0  0  0
   -5.3724  -20.4890   20.5515 H   0  0  0  0  0  0  0  0  0  0  0  0
   -5.8645  -18.7624   20.7035 H   0  0  0  0  0  0  0  0  0  0  0  0
   -4.1156  -19.9614   18.5736 H   0  0  0  0  0  0  0  0  0  0  0  0
   -3.2446  -19.4325   19.9427 H   0  0  0  0  0  0  0  0  0  0  0  0
   -6.2250  -17.7469   18.5622 H   0  0  0  0  0  0  0  0  0  0  0  0
   -3.9217  -13.7784   16.5278 H   0  0  0  0  0  0  0  0  0  0  0  0
   -2.7670  -13.8012   17.6220 H   0  0  0  0  0  0  0  0  0  0  0  0
   -1.1701  -13.2438   17.8291 H   0  0  0  0  0  0  0  0  0  0  0  0
    0.8077  -13.4955   17.7138 H   0  0  0  0  0  0  0  0  0  0  0  0
    1.8332  -15.1755   18.5476 H   0  0  0  0  0  0  0  0  0  0  0  0
    2.9202  -14.0619   18.1845 H   0  0  0  0  0  0  0  0  0  0  0  0
    2.5573  -15.3657   17.0170 H   0  0  0  0  0  0  0  0  0  0  0  0
    2.2957  -12.9216   14.4953 H   0  0  0  0  0  0  0  0  0  0  0  0
    1.1859  -11.9276   14.6031 H   0  0  0  0  0  0  0  0  0  0  0  0
    3.6072  -11.6195   16.4117 H   0  0  0  0  0  0  0  0  0  0  0  0
    5.3569  -10.3403   15.3450 H   0  0  0  0  0  0  0  0  0  0  0  0
    4.4632   -7.9942   14.0663 H   0  0  0  0  0  0  0  0  0  0  0  0
    6.0511   -8.2822   14.7192 H   0  0  0  0  0  0  0  0  0  0  0  0
    3.7409   -6.8252   16.0766 H   0  0  0  0  0  0  0  0  0  0  0  0
    5.4549   -6.3171   15.9339 H   0  0  0  0  0  0  0  0  0  0  0  0
    5.3699  -10.0336   17.6228 H   0  0  0  0  0  0  0  0  0  0  0  0
    3.6614   -9.4900   17.6224 H   0  0  0  0  0  0  0  0  0  0  0  0
   -2.2128  -17.0463   18.4254 H   0  0  0  0  0  0  0  0  0  0  0  0
  1  2  1  0
  2  3  1  0
  3  4  2  0
  4  5  1  0
  5  6  2  0
  6  7  1  0
  7  8  1  0
  8  9  2  0
  8 10  1  0
 10 11  1  0
 11 12  1  0
 11 13  1  0
 13 14  1  0
 14 15  1  0
 15 16  2  0
 15 17  1  0
 17 18  1  0
 18 19  1  0
 19 20  1  0
 20 21  2  0
 20 22  1  0
  6 23  1  0
 23  3  1  0
 22 17  1  0
  1 24  1  0
  1 25  1  0
  1 26  1  0
  2 27  1  0
  2 28  1  0
  4 29  1  0
  7 30  1  0
  7 31  1  0
 10 32  1  0
 11 33  1  0
 12 34  1  0
 12 35  1  0
 12 36  1  0
 13 37  1  0
 13 38  1  0
 14 39  1  0
 17 40  1  0
 18 41  1  0
 18 42  1  0
 19 43  1  0
 19 44  1  0
 22 45  1  0
 22 46  1  0
 23 47  1  0
M  END
>  <Energy>  (264) 
353.63372269851692

>  <compound_id>  (264) 
68657

>  <target_id>  (264) 
1

>  <reference_id>  (264) 
98

>  <inspiration_ids>  (264) 
[101, 98]

>  <energy_score>  (264) 
324.87753257929205

>  <distance_score>  (264) 
12.437478921959642

>  <path>  (264) 
/opt/xchem-fragalysis-2/maxwin/BulkDock/SCRATCH/511024/C68657-P98/C68657-P98.minimised.mol

>  <scratch_subdir>  (264) 
/opt/xchem-fragalysis-2/maxwin/BulkDock/SCRATCH/511024/C68657-P98

>  <fragmenstein_runtime>  (264) 
44.16480827331543

>  <fragmenstein_outcome>  (264) 
too moved

>  <fragmenstein_mode>  (264) 
expansion

>  <fragmenstein_error>  (264) 


$$$$
C68658-P101
     RDKit          3D

 50 52  0  0  0  0  0  0  0  0999 V2000
    3.8299  -12.8992   29.8658 C   0  0  0  0  0  0  0  0  0  0  0  0
    4.8526  -13.8672   29.2816 C   0  0  0  0  0  0  0  0  0  0  0  0
    4.1923  -15.2407   28.8744 C   0  0  0  0  0  0  0  0  0  0  0  0
    2.9740  -15.7938   29.5015 N   0  0  0  0  0  0  0  0  0  0  0  0
    2.1250  -16.9086   29.1113 C   0  0  0  0  0  0  0  0  0  0  0  0
    2.1550  -17.6110   28.1376 O   0  0  0  0  0  0  0  0  0  0  0  0
    0.9511  -17.2153   30.1570 C   0  0  0  0  0  0  0  0  0  0  0  0
   -0.4401  -16.9107   29.5275 C   0  0  0  0  0  0  0  0  0  0  0  0
   -1.5854  -17.2545   30.4885 C   0  0  0  0  0  0  0  0  0  0  0  0
   -0.9799  -17.8107   31.7779 C   0  0  0  0  0  0  0  0  0  0  0  0
   -0.2332  -19.0953   31.4119 C   0  0  0  0  0  0  0  0  0  0  0  0
    0.9510  -18.7351   30.5034 C   0  0  0  0  0  0  0  0  0  0  0  0
    0.0351  -16.7890   32.3225 C   0  0  0  0  0  0  0  0  0  0  0  0
    1.0713  -16.4669   31.3733 O   0  0  0  0  0  0  0  0  0  0  0  0
    5.6955  -13.3052   28.1547 N   0  0  0  0  0  0  0  0  0  0  0  0
    6.3970  -12.0075   28.0216 C   0  0  0  0  0  0  0  0  0  0  0  0
    6.4051  -11.0458   28.7430 O   0  0  0  0  0  0  0  0  0  0  0  0
    7.3503  -11.9960   26.7533 C   0  0  0  0  0  0  0  0  0  0  0  0
    7.2809  -10.7868   25.8061 C   0  0  0  0  0  0  0  0  0  0  0  0
    6.1627  -10.2684   25.3188 N   0  0  0  0  0  0  0  0  0  0  0  0
    6.5291   -9.3287   24.3822 C   0  0  0  0  0  0  0  0  0  0  0  0
    7.8916   -9.2671   24.2634 C   0  0  0  0  0  0  0  0  0  0  0  0
    8.3702  -10.1838   25.1659 N   0  0  0  0  0  0  0  0  0  0  0  0
    9.7830  -10.4529   25.3310 C   0  0  0  0  0  0  0  0  0  0  0  0
    2.9038  -12.8768   29.2863 H   0  0  0  0  0  0  0  0  0  0  0  0
    3.5499  -13.2200   30.8760 H   0  0  0  0  0  0  0  0  0  0  0  0
    4.2210  -11.8815   29.9436 H   0  0  0  0  0  0  0  0  0  0  0  0
    5.5809  -14.0710   30.0768 H   0  0  0  0  0  0  0  0  0  0  0  0
    3.9725  -15.2101   27.8030 H   0  0  0  0  0  0  0  0  0  0  0  0
    4.9555  -16.0193   28.9861 H   0  0  0  0  0  0  0  0  0  0  0  0
    2.7073  -15.4846   30.4358 H   0  0  0  0  0  0  0  0  0  0  0  0
   -0.5019  -15.8437   29.2832 H   0  0  0  0  0  0  0  0  0  0  0  0
   -0.5729  -17.4804   28.6012 H   0  0  0  0  0  0  0  0  0  0  0  0
   -2.2683  -17.9775   30.0273 H   0  0  0  0  0  0  0  0  0  0  0  0
   -2.1739  -16.3543   30.7022 H   0  0  0  0  0  0  0  0  0  0  0  0
   -1.7624  -18.0157   32.5155 H   0  0  0  0  0  0  0  0  0  0  0  0
    0.1355  -19.5925   32.3169 H   0  0  0  0  0  0  0  0  0  0  0  0
   -0.8984  -19.8069   30.9087 H   0  0  0  0  0  0  0  0  0  0  0  0
    0.9164  -19.3516   29.5986 H   0  0  0  0  0  0  0  0  0  0  0  0
    1.8856  -18.9871   31.0205 H   0  0  0  0  0  0  0  0  0  0  0  0
    0.5229  -17.1713   33.2259 H   0  0  0  0  0  0  0  0  0  0  0  0
   -0.4650  -15.8523   32.5914 H   0  0  0  0  0  0  0  0  0  0  0  0
    5.8496  -13.8537   27.3173 H   0  0  0  0  0  0  0  0  0  0  0  0
    7.1643  -12.8837   26.1479 H   0  0  0  0  0  0  0  0  0  0  0  0
    8.3688  -12.0916   27.1480 H   0  0  0  0  0  0  0  0  0  0  0  0
    5.7864   -8.7578   23.8404 H   0  0  0  0  0  0  0  0  0  0  0  0
    8.5370   -8.6734   23.6335 H   0  0  0  0  0  0  0  0  0  0  0  0
    9.9623  -11.4985   25.0687 H   0  0  0  0  0  0  0  0  0  0  0  0
   10.0434  -10.2672   26.3758 H   0  0  0  0  0  0  0  0  0  0  0  0
   10.3665   -9.7979   24.6793 H   0  0  0  0  0  0  0  0  0  0  0  0
  1  2  1  0
  2  3  1  0
  3  4  1  0
  4  5  1  0
  5  6  2  0
  5  7  1  0
  7  8  1  0
  8  9  1  0
  9 10  1  0
 10 11  1  0
 11 12  1  0
 10 13  1  0
 13 14  1  0
  2 15  1  0
 15 16  1  0
 16 17  2  0
 16 18  1  0
 18 19  1  0
 19 20  2  0
 20 21  1  0
 21 22  2  0
 22 23  1  0
 23 24  1  0
 12  7  1  0
 23 19  1  0
 14  7  1  0
  1 25  1  0
  1 26  1  0
  1 27  1  0
  2 28  1  0
  3 29  1  0
  3 30  1  0
  4 31  1  0
  8 32  1  0
  8 33  1  0
  9 34  1  0
  9 35  1  0
 10 36  1  0
 11 37  1  0
 11 38  1  0
 12 39  1  0
 12 40  1  0
 13 41  1  0
 13 42  1  0
 15 43  1  0
 18 44  1  0
 18 45  1  0
 21 46  1  0
 22 47  1  0
 24 48  1  0
 24 49  1  0
 24 50  1  0
M  END
>  <Energy>  (265) 
94.843382335702969

>  <compound_id>  (265) 
68658

>  <target_id>  (265) 
1

>  <reference_id>  (265) 
101

>  <inspiration_ids>  (265) 
[101, 98]

>  <energy_score>  (265) 
-1.5155452458386662

>  <distance_score>  (265) 
14.345249938721212

>  <path>  (265) 
/opt/xchem-fragalysis-2/maxwin/BulkDock/SCRATCH/511024/C68658-P101/C68658-P101.minimised.mol

>  <scratch_subdir>  (265) 
/opt/xchem-fragalysis-2/maxwin/BulkDock/SCRATCH/511024/C68658-P101

>  <fragmenstein_runtime>  (265) 
39.95886492729187

>  <fragmenstein_outcome>  (265) 
too moved

>  <fragmenstein_mode>  (265) 
expansion

>  <fragmenstein_error>  (265) 


$$$$
C68658-P98
     RDKit          3D

 50 52  0  0  0  0  0  0  0  0999 V2000
    2.5942  -16.6122   27.9670 C   0  0  0  0  0  0  0  0  0  0  0  0
    2.6666  -17.9501   27.1274 C   0  0  0  0  0  0  0  0  0  0  0  0
    2.6570  -18.1949   25.1162 C   0  0  0  0  0  0  0  0  0  0  0  0
    2.0190  -19.4776   24.6704 N   0  0  0  0  0  0  0  0  0  0  0  0
    0.3313  -19.8371   23.9043 C   0  0  0  0  0  0  0  0  0  0  0  0
   -0.4849  -19.0649   23.5501 O   0  0  0  0  0  0  0  0  0  0  0  0
   -0.4178  -21.7351   23.7791 C   0  0  0  0  0  0  0  0  0  0  0  0
   -0.1075  -23.1123   22.9977 C   0  0  0  0  0  0  0  0  0  0  0  0
   -0.9369  -24.3565   23.4046 C   0  0  0  0  0  0  0  0  0  0  0  0
   -2.0250  -23.9780   24.3712 C   0  0  0  0  0  0  0  0  0  0  0  0
   -2.8862  -22.9503   23.6720 C   0  0  0  0  0  0  0  0  0  0  0  0
   -2.1363  -21.6254   23.7157 C   0  0  0  0  0  0  0  0  0  0  0  0
   -1.3574  -23.3537   25.5845 C   0  0  0  0  0  0  0  0  0  0  0  0
   -0.3540  -22.3981   25.2381 O   0  0  0  0  0  0  0  0  0  0  0  0
    3.8500  -18.5127   28.0766 N   0  0  0  0  0  0  0  0  0  0  0  0
    4.7376  -19.6469   27.9252 C   0  0  0  0  0  0  0  0  0  0  0  0
    4.7664  -20.5136   27.0949 O   0  0  0  0  0  0  0  0  0  0  0  0
    5.9010  -19.5573   29.0608 C   0  0  0  0  0  0  0  0  0  0  0  0
    6.6181  -18.1148   29.1420 C   0  0  0  0  0  0  0  0  0  0  0  0
    6.0410  -17.1073   29.7965 N   0  0  0  0  0  0  0  0  0  0  0  0
    6.7349  -15.9553   29.4816 C   0  0  0  0  0  0  0  0  0  0  0  0
    7.7972  -16.2377   28.6688 C   0  0  0  0  0  0  0  0  0  0  0  0
    7.7690  -17.6092   28.4990 N   0  0  0  0  0  0  0  0  0  0  0  0
    8.8183  -18.2619   27.7435 C   0  0  0  0  0  0  0  0  0  0  0  0
    3.4560  -15.9531   27.8058 H   0  0  0  0  0  0  0  0  0  0  0  0
    2.6196  -16.8299   29.0484 H   0  0  0  0  0  0  0  0  0  0  0  0
    1.6458  -16.0905   27.9381 H   0  0  0  0  0  0  0  0  0  0  0  0
    1.7259  -18.3093   27.5705 H   0  0  0  0  0  0  0  0  0  0  0  0
    3.5213  -18.8518   25.2504 H   0  0  0  0  0  0  0  0  0  0  0  0
    3.1504  -17.6196   24.3598 H   0  0  0  0  0  0  0  0  0  0  0  0
    2.5681  -20.3503   24.8027 H   0  0  0  0  0  0  0  0  0  0  0  0
   -0.2213  -23.0562   21.9148 H   0  0  0  0  0  0  0  0  0  0  0  0
    0.9008  -23.4563   23.2073 H   0  0  0  0  0  0  0  0  0  0  0  0
   -1.3552  -24.8311   22.5077 H   0  0  0  0  0  0  0  0  0  0  0  0
   -0.2767  -25.1078   23.8581 H   0  0  0  0  0  0  0  0  0  0  0  0
   -2.6231  -24.8506   24.6511 H   0  0  0  0  0  0  0  0  0  0  0  0
   -3.8534  -22.8461   24.1793 H   0  0  0  0  0  0  0  0  0  0  0  0
   -3.1047  -23.2392   22.6372 H   0  0  0  0  0  0  0  0  0  0  0  0
   -2.4996  -20.9733   22.9385 H   0  0  0  0  0  0  0  0  0  0  0  0
   -2.5361  -21.1754   24.6313 H   0  0  0  0  0  0  0  0  0  0  0  0
   -0.8628  -24.1262   26.1837 H   0  0  0  0  0  0  0  0  0  0  0  0
   -2.0888  -22.8710   26.2428 H   0  0  0  0  0  0  0  0  0  0  0  0
    4.0710  -18.0313   28.9503 H   0  0  0  0  0  0  0  0  0  0  0  0
    6.6652  -20.3070   28.8333 H   0  0  0  0  0  0  0  0  0  0  0  0
    5.4503  -19.7784   30.0336 H   0  0  0  0  0  0  0  0  0  0  0  0
    6.4278  -14.9946   29.8734 H   0  0  0  0  0  0  0  0  0  0  0  0
    8.5658  -15.6161   28.2312 H   0  0  0  0  0  0  0  0  0  0  0  0
    8.5252  -19.2921   27.5347 H   0  0  0  0  0  0  0  0  0  0  0  0
    9.7207  -18.2610   28.3611 H   0  0  0  0  0  0  0  0  0  0  0  0
    8.9987  -17.7135   26.8169 H   0  0  0  0  0  0  0  0  0  0  0  0
  1  2  1  0
  2  3  1  0
  3  4  1  0
  4  5  1  0
  5  6  2  0
  5  7  1  0
  7  8  1  0
  8  9  1  0
  9 10  1  0
 10 11  1  0
 11 12  1  0
 10 13  1  0
 13 14  1  0
  2 15  1  0
 15 16  1  0
 16 17  2  0
 16 18  1  0
 18 19  1  0
 19 20  2  0
 20 21  1  0
 21 22  2  0
 22 23  1  0
 23 24  1  0
 12  7  1  0
 23 19  1  0
 14  7  1  0
  1 25  1  0
  1 26  1  0
  1 27  1  0
  2 28  1  0
  3 29  1  0
  3 30  1  0
  4 31  1  0
  8 32  1  0
  8 33  1  0
  9 34  1  0
  9 35  1  0
 10 36  1  0
 11 37  1  0
 11 38  1  0
 12 39  1  0
 12 40  1  0
 13 41  1  0
 13 42  1  0
 15 43  1  0
 18 44  1  0
 18 45  1  0
 21 46  1  0
 22 47  1  0
 24 48  1  0
 24 49  1  0
 24 50  1  0
M  END
>  <Energy>  (266) 
386.89395251505783

>  <compound_id>  (266) 
68658

>  <target_id>  (266) 
1

>  <reference_id>  (266) 
98

>  <inspiration_ids>  (266) 
[101, 98]

>  <energy_score>  (266) 
290.53502493351124

>  <distance_score>  (266) 
17.8240153594192

>  <path>  (266) 
/opt/xchem-fragalysis-2/maxwin/BulkDock/SCRATCH/511024/C68658-P98/C68658-P98.minimised.mol

>  <scratch_subdir>  (266) 
/opt/xchem-fragalysis-2/maxwin/BulkDock/SCRATCH/511024/C68658-P98

>  <fragmenstein_runtime>  (266) 
44.90981650352478

>  <fragmenstein_outcome>  (266) 
too moved

>  <fragmenstein_mode>  (266) 
expansion

>  <fragmenstein_error>  (266) 


$$$$
C68659-P101
     RDKit          3D

 48 49  0  0  0  0  0  0  0  0999 V2000
   10.1803  -11.7261   25.0205 C   0  0  0  0  0  0  0  0  0  0  0  0
    8.9550  -12.4659   25.5279 C   0  0  0  0  0  0  0  0  0  0  0  0
    7.6417  -11.7531   26.0470 C   0  0  0  0  0  0  0  0  0  0  0  0
    6.9318  -12.8155   27.2120 C   0  0  0  0  0  0  0  0  0  0  0  0
    5.2219  -13.3447   27.6336 C   0  0  0  0  0  0  0  0  0  0  0  0
    4.0126  -14.6930   27.3036 N   0  0  0  0  0  0  0  0  0  0  0  0
    3.5874  -16.1190   28.2473 C   0  0  0  0  0  0  0  0  0  0  0  0
    4.0751  -16.5540   29.2945 O   0  0  0  0  0  0  0  0  0  0  0  0
    2.3260  -16.9908   27.8401 C   0  0  0  0  0  0  0  0  0  0  0  0
    1.7716  -18.1382   28.7831 C   0  0  0  0  0  0  0  0  0  0  0  0
    0.4203  -18.7564   28.3779 C   0  0  0  0  0  0  0  0  0  0  0  0
   -0.8792  -18.4743   28.7837 C   0  0  0  0  0  0  0  0  0  0  0  0
   -1.7995  -19.3223   28.2089 N   0  0  0  0  0  0  0  0  0  0  0  0
   -1.0886  -20.1373   27.4673 C   0  0  0  0  0  0  0  0  0  0  0  0
    0.2481  -19.8407   27.5367 N   0  0  0  0  0  0  0  0  0  0  0  0
    1.2916  -20.5519   26.8398 C   0  0  0  0  0  0  0  0  0  0  0  0
    8.0425  -10.3924   26.5382 N   0  0  0  0  0  0  0  0  0  0  0  0
    8.6760  -10.2141   27.8288 C   0  0  0  0  0  0  0  0  0  0  0  0
    9.6524   -9.0606   27.6627 C   0  0  0  0  0  0  0  0  0  0  0  0
    9.0172   -8.2431   26.5712 C   0  0  0  0  0  0  0  0  0  0  0  0
    8.4342   -9.3208   25.7044 C   0  0  0  0  0  0  0  0  0  0  0  0
    8.3983   -9.2221   24.4921 O   0  0  0  0  0  0  0  0  0  0  0  0
   10.9326  -12.4553   24.6976 H   0  0  0  0  0  0  0  0  0  0  0  0
   10.6482  -11.1313   25.8074 H   0  0  0  0  0  0  0  0  0  0  0  0
    9.9818  -11.0878   24.1697 H   0  0  0  0  0  0  0  0  0  0  0  0
    9.3388  -13.0180   26.3865 H   0  0  0  0  0  0  0  0  0  0  0  0
    8.6709  -13.2106   24.7825 H   0  0  0  0  0  0  0  0  0  0  0  0
    6.9583  -11.6331   25.2023 H   0  0  0  0  0  0  0  0  0  0  0  0
    7.2634  -12.3730   28.1580 H   0  0  0  0  0  0  0  0  0  0  0  0
    7.4921  -13.7342   27.0553 H   0  0  0  0  0  0  0  0  0  0  0  0
    5.1588  -13.1391   26.5718 H   0  0  0  0  0  0  0  0  0  0  0  0
    4.8160  -12.6270   28.3170 H   0  0  0  0  0  0  0  0  0  0  0  0
    3.4821  -14.6637   26.4669 H   0  0  0  0  0  0  0  0  0  0  0  0
    1.5171  -16.2821   27.8843 H   0  0  0  0  0  0  0  0  0  0  0  0
    2.5637  -17.4904   26.9054 H   0  0  0  0  0  0  0  0  0  0  0  0
    1.6668  -17.7299   29.7966 H   0  0  0  0  0  0  0  0  0  0  0  0
    2.5285  -18.9285   28.8551 H   0  0  0  0  0  0  0  0  0  0  0  0
   -1.1947  -17.6995   29.4712 H   0  0  0  0  0  0  0  0  0  0  0  0
   -1.4809  -20.9471   26.8667 H   0  0  0  0  0  0  0  0  0  0  0  0
    1.9118  -21.0646   27.5792 H   0  0  0  0  0  0  0  0  0  0  0  0
    0.8458  -21.2817   26.1590 H   0  0  0  0  0  0  0  0  0  0  0  0
    1.8863  -19.8352   26.2687 H   0  0  0  0  0  0  0  0  0  0  0  0
    7.8921   -9.9827   28.5574 H   0  0  0  0  0  0  0  0  0  0  0  0
    9.2029  -11.1212   28.1398 H   0  0  0  0  0  0  0  0  0  0  0  0
   10.6318   -9.4321   27.3401 H   0  0  0  0  0  0  0  0  0  0  0  0
    9.7982   -8.4999   28.5904 H   0  0  0  0  0  0  0  0  0  0  0  0
    8.2050   -7.6335   26.9709 H   0  0  0  0  0  0  0  0  0  0  0  0
    9.7435   -7.6319   26.0317 H   0  0  0  0  0  0  0  0  0  0  0  0
  1  2  1  0
  2  3  1  0
  3  4  1  0
  4  5  1  0
  5  6  1  0
  6  7  1  0
  7  8  2  0
  7  9  1  0
  9 10  1  0
 10 11  1  0
 11 12  2  0
 12 13  1  0
 13 14  2  0
 14 15  1  0
 15 16  1  0
  3 17  1  0
 17 18  1  0
 18 19  1  0
 19 20  1  0
 20 21  1  0
 21 22  2  0
 15 11  1  0
 21 17  1  0
  1 23  1  0
  1 24  1  0
  1 25  1  0
  2 26  1  0
  2 27  1  0
  3 28  1  0
  4 29  1  0
  4 30  1  0
  5 31  1  0
  5 32  1  0
  6 33  1  0
  9 34  1  0
  9 35  1  0
 10 36  1  0
 10 37  1  0
 12 38  1  0
 14 39  1  0
 16 40  1  0
 16 41  1  0
 16 42  1  0
 18 43  1  0
 18 44  1  0
 19 45  1  0
 19 46  1  0
 20 47  1  0
 20 48  1  0
M  END
>  <Energy>  (267) 
178.79908236754233

>  <compound_id>  (267) 
68659

>  <target_id>  (267) 
1

>  <reference_id>  (267) 
101

>  <inspiration_ids>  (267) 
[101, 98]

>  <energy_score>  (267) 
161.9236644179615

>  <distance_score>  (267) 
13.396736681956426

>  <path>  (267) 
/opt/xchem-fragalysis-2/maxwin/BulkDock/SCRATCH/511024/C68659-P101/C68659-P101.minimised.mol

>  <scratch_subdir>  (267) 
/opt/xchem-fragalysis-2/maxwin/BulkDock/SCRATCH/511024/C68659-P101

>  <fragmenstein_runtime>  (267) 
46.28124523162842

>  <fragmenstein_outcome>  (267) 
too moved

>  <fragmenstein_mode>  (267) 
expansion

>  <fragmenstein_error>  (267) 


$$$$
C68659-P98
     RDKit          3D

 48 49  0  0  0  0  0  0  0  0999 V2000
    7.2638  -10.0021   28.2866 C   0  0  0  0  0  0  0  0  0  0  0  0
    6.3209  -10.1628   27.0916 C   0  0  0  0  0  0  0  0  0  0  0  0
    6.5166  -11.4914   26.2891 C   0  0  0  0  0  0  0  0  0  0  0  0
    5.7785  -12.8070   27.2514 C   0  0  0  0  0  0  0  0  0  0  0  0
    4.1775  -13.9537   27.4269 C   0  0  0  0  0  0  0  0  0  0  0  0
    3.6113  -15.6648   27.5198 N   0  0  0  0  0  0  0  0  0  0  0  0
    3.1342  -16.5283   28.7328 C   0  0  0  0  0  0  0  0  0  0  0  0
    3.1109  -16.2775   29.9222 O   0  0  0  0  0  0  0  0  0  0  0  0
    2.4810  -17.9110   28.2705 C   0  0  0  0  0  0  0  0  0  0  0  0
    1.0956  -18.1678   29.0063 C   0  0  0  0  0  0  0  0  0  0  0  0
    0.0674  -19.1510   28.4445 C   0  0  0  0  0  0  0  0  0  0  0  0
   -0.0429  -19.8818   27.2736 C   0  0  0  0  0  0  0  0  0  0  0  0
   -1.2171  -20.6048   27.2185 N   0  0  0  0  0  0  0  0  0  0  0  0
   -1.8400  -20.3337   28.3394 C   0  0  0  0  0  0  0  0  0  0  0  0
   -1.1141  -19.4662   29.1086 N   0  0  0  0  0  0  0  0  0  0  0  0
   -1.5324  -18.9544   30.3921 C   0  0  0  0  0  0  0  0  0  0  0  0
    7.9728  -11.3947   25.8180 N   0  0  0  0  0  0  0  0  0  0  0  0
    8.8774  -12.4921   25.8294 C   0  0  0  0  0  0  0  0  0  0  0  0
   10.0958  -12.0778   25.0245 C   0  0  0  0  0  0  0  0  0  0  0  0
   10.0814  -10.5765   25.0640 C   0  0  0  0  0  0  0  0  0  0  0  0
    8.6143  -10.2724   25.2169 C   0  0  0  0  0  0  0  0  0  0  0  0
    8.1719   -9.1802   24.8894 O   0  0  0  0  0  0  0  0  0  0  0  0
    7.2144  -10.8600   28.9628 H   0  0  0  0  0  0  0  0  0  0  0  0
    8.3041   -9.8742   27.9752 H   0  0  0  0  0  0  0  0  0  0  0  0
    6.9842   -9.1108   28.8584 H   0  0  0  0  0  0  0  0  0  0  0  0
    5.3072  -10.1244   27.5005 H   0  0  0  0  0  0  0  0  0  0  0  0
    6.4145   -9.2793   26.4537 H   0  0  0  0  0  0  0  0  0  0  0  0
    6.0761  -11.6475   25.3112 H   0  0  0  0  0  0  0  0  0  0  0  0
    6.6982  -13.3839   27.1578 H   0  0  0  0  0  0  0  0  0  0  0  0
    5.6860  -12.2979   28.2194 H   0  0  0  0  0  0  0  0  0  0  0  0
    3.3267  -13.4293   27.7656 H   0  0  0  0  0  0  0  0  0  0  0  0
    4.0774  -14.0723   26.3273 H   0  0  0  0  0  0  0  0  0  0  0  0
    3.5689  -16.2123   26.6862 H   0  0  0  0  0  0  0  0  0  0  0  0
    2.3201  -17.9022   27.1938 H   0  0  0  0  0  0  0  0  0  0  0  0
    3.1756  -18.7213   28.5133 H   0  0  0  0  0  0  0  0  0  0  0  0
    1.3356  -18.4824   30.0307 H   0  0  0  0  0  0  0  0  0  0  0  0
    0.5882  -17.1988   29.1005 H   0  0  0  0  0  0  0  0  0  0  0  0
    0.6632  -19.9200   26.4535 H   0  0  0  0  0  0  0  0  0  0  0  0
   -2.8012  -20.7288   28.6402 H   0  0  0  0  0  0  0  0  0  0  0  0
   -1.5716  -17.8638   30.3358 H   0  0  0  0  0  0  0  0  0  0  0  0
   -0.8101  -19.2783   31.1454 H   0  0  0  0  0  0  0  0  0  0  0  0
   -2.5231  -19.3459   30.6376 H   0  0  0  0  0  0  0  0  0  0  0  0
    9.1096  -12.6833   26.8727 H   0  0  0  0  0  0  0  0  0  0  0  0
    8.3985  -13.3542   25.3766 H   0  0  0  0  0  0  0  0  0  0  0  0
    9.9888  -12.4279   23.9980 H   0  0  0  0  0  0  0  0  0  0  0  0
   11.0253  -12.5016   25.4150 H   0  0  0  0  0  0  0  0  0  0  0  0
   10.4904  -10.1378   24.1509 H   0  0  0  0  0  0  0  0  0  0  0  0
   10.6134  -10.1858   25.9369 H   0  0  0  0  0  0  0  0  0  0  0  0
  1  2  1  0
  2  3  1  0
  3  4  1  0
  4  5  1  0
  5  6  1  0
  6  7  1  0
  7  8  2  0
  7  9  1  0
  9 10  1  0
 10 11  1  0
 11 12  2  0
 12 13  1  0
 13 14  2  0
 14 15  1  0
 15 16  1  0
  3 17  1  0
 17 18  1  0
 18 19  1  0
 19 20  1  0
 20 21  1  0
 21 22  2  0
 15 11  1  0
 21 17  1  0
  1 23  1  0
  1 24  1  0
  1 25  1  0
  2 26  1  0
  2 27  1  0
  3 28  1  0
  4 29  1  0
  4 30  1  0
  5 31  1  0
  5 32  1  0
  6 33  1  0
  9 34  1  0
  9 35  1  0
 10 36  1  0
 10 37  1  0
 12 38  1  0
 14 39  1  0
 16 40  1  0
 16 41  1  0
 16 42  1  0
 18 43  1  0
 18 44  1  0
 19 45  1  0
 19 46  1  0
 20 47  1  0
 20 48  1  0
M  END
>  <Energy>  (268) 
174.79706563405762

>  <compound_id>  (268) 
68659

>  <target_id>  (268) 
1

>  <reference_id>  (268) 
98

>  <inspiration_ids>  (268) 
[101, 98]

>  <energy_score>  (268) 
157.9216476844884

>  <distance_score>  (268) 
13.239915676063468

>  <path>  (268) 
/opt/xchem-fragalysis-2/maxwin/BulkDock/SCRATCH/511024/C68659-P98/C68659-P98.minimised.mol

>  <scratch_subdir>  (268) 
/opt/xchem-fragalysis-2/maxwin/BulkDock/SCRATCH/511024/C68659-P98

>  <fragmenstein_runtime>  (268) 
27.314465045928955

>  <fragmenstein_outcome>  (268) 
too moved

>  <fragmenstein_mode>  (268) 
expansion

>  <fragmenstein_error>  (268) 


$$$$
C68660-P101
     RDKit          3D

 39 40  0  0  0  0  0  0  0  0999 V2000
    4.9213  -20.4752   28.6945 C   0  0  0  0  0  0  0  0  0  0  0  0
    4.7927  -20.4296   27.2023 C   0  0  0  0  0  0  0  0  0  0  0  0
    5.1952  -21.6637   26.7372 N   0  0  0  0  0  0  0  0  0  0  0  0
    4.2303  -21.9549   25.8796 C   0  0  0  0  0  0  0  0  0  0  0  0
    3.9157  -20.8256   25.2142 N   0  0  0  0  0  0  0  0  0  0  0  0
    4.2082  -19.7445   25.9892 C   0  0  0  0  0  0  0  0  0  0  0  0
    3.5181  -18.0022   25.5173 C   0  0  0  0  0  0  0  0  0  0  0  0
    3.5319  -17.2010   23.9126 C   0  0  0  0  0  0  0  0  0  0  0  0
    3.3261  -17.9973   23.1046 O   0  0  0  0  0  0  0  0  0  0  0  0
    3.6688  -15.3693   23.5815 N   0  0  0  0  0  0  0  0  0  0  0  0
    3.3734  -14.3033   21.9262 C   0  0  0  0  0  0  0  0  0  0  0  0
    4.7564  -13.2420   20.8024 C   0  0  0  0  0  0  0  0  0  0  0  0
    5.9986  -11.9237   20.7187 C   0  0  0  0  0  0  0  0  0  0  0  0
    7.4591  -11.7462   20.6383 N   0  0  0  0  0  0  0  0  0  0  0  0
    7.9185  -10.3998   20.9897 C   0  0  0  0  0  0  0  0  0  0  0  0
    9.1864  -10.1105   20.2301 C   0  0  0  0  0  0  0  0  0  0  0  0
    9.1012  -11.0382   19.0384 C   0  0  0  0  0  0  0  0  0  0  0  0
    8.0997  -12.0977   19.4219 C   0  0  0  0  0  0  0  0  0  0  0  0
    7.8453  -13.0488   18.7052 O   0  0  0  0  0  0  0  0  0  0  0  0
    5.9345  -20.7907   28.9849 H   0  0  0  0  0  0  0  0  0  0  0  0
    4.6693  -19.5968   29.2709 H   0  0  0  0  0  0  0  0  0  0  0  0
    4.2700  -21.2740   29.0813 H   0  0  0  0  0  0  0  0  0  0  0  0
    5.6915  -22.3592   27.2725 H   0  0  0  0  0  0  0  0  0  0  0  0
    3.8948  -22.9589   25.6457 H   0  0  0  0  0  0  0  0  0  0  0  0
    2.6338  -18.4915   25.1368 H   0  0  0  0  0  0  0  0  0  0  0  0
    3.0908  -17.5204   26.4096 H   0  0  0  0  0  0  0  0  0  0  0  0
    3.9347  -14.8857   24.4313 H   0  0  0  0  0  0  0  0  0  0  0  0
    3.1919  -13.3851   22.5728 H   0  0  0  0  0  0  0  0  0  0  0  0
    2.6928  -14.6591   21.1292 H   0  0  0  0  0  0  0  0  0  0  0  0
    5.4811  -13.8612   20.2825 H   0  0  0  0  0  0  0  0  0  0  0  0
    4.1282  -13.0093   19.9498 H   0  0  0  0  0  0  0  0  0  0  0  0
    5.8841  -11.6737   19.6529 H   0  0  0  0  0  0  0  0  0  0  0  0
    5.6543  -11.1398   21.3920 H   0  0  0  0  0  0  0  0  0  0  0  0
    8.0594  -10.3396   22.0713 H   0  0  0  0  0  0  0  0  0  0  0  0
    7.1750   -9.6702   20.6626 H   0  0  0  0  0  0  0  0  0  0  0  0
    9.2350   -9.0548   19.9721 H   0  0  0  0  0  0  0  0  0  0  0  0
   10.0866  -10.2973   20.8238 H   0  0  0  0  0  0  0  0  0  0  0  0
    8.6940  -10.5345   18.1580 H   0  0  0  0  0  0  0  0  0  0  0  0
   10.0680  -11.4886   18.8000 H   0  0  0  0  0  0  0  0  0  0  0  0
  1  2  1  0
  2  3  1  0
  3  4  1  0
  4  5  2  0
  5  6  1  0
  6  7  1  0
  7  8  1  0
  8  9  2  0
  8 10  1  0
 10 11  1  0
 11 12  1  0
 12 13  1  0
 13 14  1  0
 14 15  1  0
 15 16  1  0
 16 17  1  0
 17 18  1  0
 18 19  2  0
  6  2  2  0
 18 14  1  0
  1 20  1  0
  1 21  1  0
  1 22  1  0
  3 23  1  0
  4 24  1  0
  7 25  1  0
  7 26  1  0
 10 27  1  0
 11 28  1  0
 11 29  1  0
 12 30  1  0
 12 31  1  0
 13 32  1  0
 13 33  1  0
 15 34  1  0
 15 35  1  0
 16 36  1  0
 16 37  1  0
 17 38  1  0
 17 39  1  0
M  END
>  <Energy>  (269) 
468.43935290478612

>  <compound_id>  (269) 
68660

>  <target_id>  (269) 
1

>  <reference_id>  (269) 
101

>  <inspiration_ids>  (269) 
[101, 98]

>  <energy_score>  (269) 
465.7061015178997

>  <distance_score>  (269) 
13.68048645783224

>  <path>  (269) 
/opt/xchem-fragalysis-2/maxwin/BulkDock/SCRATCH/511024/C68660-P101/C68660-P101.minimised.mol

>  <scratch_subdir>  (269) 
/opt/xchem-fragalysis-2/maxwin/BulkDock/SCRATCH/511024/C68660-P101

>  <fragmenstein_runtime>  (269) 
16.707311391830444

>  <fragmenstein_outcome>  (269) 
too moved

>  <fragmenstein_mode>  (269) 
expansion

>  <fragmenstein_error>  (269) 


$$$$
C68660-P98
     RDKit          3D

 39 40  0  0  0  0  0  0  0  0999 V2000
    6.8167  -13.3055   17.8230 C   0  0  0  0  0  0  0  0  0  0  0  0
    7.1161  -14.6814   18.2799 C   0  0  0  0  0  0  0  0  0  0  0  0
    6.1177  -15.5688   18.6196 N   0  0  0  0  0  0  0  0  0  0  0  0
    6.7231  -16.7044   19.0642 C   0  0  0  0  0  0  0  0  0  0  0  0
    8.0174  -16.6544   18.8982 N   0  0  0  0  0  0  0  0  0  0  0  0
    8.3092  -15.3545   18.5032 C   0  0  0  0  0  0  0  0  0  0  0  0
    9.7845  -15.0161   18.3224 C   0  0  0  0  0  0  0  0  0  0  0  0
   10.3840  -13.5776   18.4849 C   0  0  0  0  0  0  0  0  0  0  0  0
    9.6917  -12.6031   18.5809 O   0  0  0  0  0  0  0  0  0  0  0  0
   11.8522  -13.7074   18.3907 N   0  0  0  0  0  0  0  0  0  0  0  0
   12.9056  -12.6856   18.2865 C   0  0  0  0  0  0  0  0  0  0  0  0
   13.2578  -11.8024   19.5098 C   0  0  0  0  0  0  0  0  0  0  0  0
   14.6449  -11.0967   19.3592 C   0  0  0  0  0  0  0  0  0  0  0  0
   14.8117   -9.8143   20.0536 N   0  0  0  0  0  0  0  0  0  0  0  0
   14.4323   -9.5934   21.4228 C   0  0  0  0  0  0  0  0  0  0  0  0
   14.6336   -8.1010   21.6162 C   0  0  0  0  0  0  0  0  0  0  0  0
   15.8017   -7.7732   20.7009 C   0  0  0  0  0  0  0  0  0  0  0  0
   15.7545   -8.8596   19.6525 C   0  0  0  0  0  0  0  0  0  0  0  0
   16.4676   -8.8775   18.6636 O   0  0  0  0  0  0  0  0  0  0  0  0
    7.4884  -13.0109   17.0109 H   0  0  0  0  0  0  0  0  0  0  0  0
    6.9310  -12.5965   18.6489 H   0  0  0  0  0  0  0  0  0  0  0  0
    5.7906  -13.2253   17.4491 H   0  0  0  0  0  0  0  0  0  0  0  0
    5.1376  -15.3374   18.7455 H   0  0  0  0  0  0  0  0  0  0  0  0
    6.2060  -17.4977   19.5777 H   0  0  0  0  0  0  0  0  0  0  0  0
   10.0489  -15.3390   17.3059 H   0  0  0  0  0  0  0  0  0  0  0  0
   10.3372  -15.6638   19.0157 H   0  0  0  0  0  0  0  0  0  0  0  0
   12.1008  -14.6902   18.4048 H   0  0  0  0  0  0  0  0  0  0  0  0
   12.6206  -12.0542   17.4414 H   0  0  0  0  0  0  0  0  0  0  0  0
   13.8025  -13.2386   17.9841 H   0  0  0  0  0  0  0  0  0  0  0  0
   12.4498  -11.0831   19.6709 H   0  0  0  0  0  0  0  0  0  0  0  0
   13.2842  -12.4269   20.4115 H   0  0  0  0  0  0  0  0  0  0  0  0
   15.4190  -11.7657   19.7558 H   0  0  0  0  0  0  0  0  0  0  0  0
   14.8952  -10.9523   18.3047 H   0  0  0  0  0  0  0  0  0  0  0  0
   13.3972   -9.8941   21.6027 H   0  0  0  0  0  0  0  0  0  0  0  0
   15.1022  -10.1741   22.0662 H   0  0  0  0  0  0  0  0  0  0  0  0
   14.8280   -7.8368   22.6598 H   0  0  0  0  0  0  0  0  0  0  0  0
   13.7420   -7.5481   21.3006 H   0  0  0  0  0  0  0  0  0  0  0  0
   16.7547   -7.8427   21.2342 H   0  0  0  0  0  0  0  0  0  0  0  0
   15.6957   -6.7858   20.2450 H   0  0  0  0  0  0  0  0  0  0  0  0
  1  2  1  0
  2  3  1  0
  3  4  1  0
  4  5  2  0
  5  6  1  0
  6  7  1  0
  7  8  1  0
  8  9  2  0
  8 10  1  0
 10 11  1  0
 11 12  1  0
 12 13  1  0
 13 14  1  0
 14 15  1  0
 15 16  1  0
 16 17  1  0
 17 18  1  0
 18 19  2  0
  6  2  2  0
 18 14  1  0
  1 20  1  0
  1 21  1  0
  1 22  1  0
  3 23  1  0
  4 24  1  0
  7 25  1  0
  7 26  1  0
 10 27  1  0
 11 28  1  0
 11 29  1  0
 12 30  1  0
 12 31  1  0
 13 32  1  0
 13 33  1  0
 15 34  1  0
 15 35  1  0
 16 36  1  0
 16 37  1  0
 17 38  1  0
 17 39  1  0
M  END
>  <Energy>  (270) 
6.8083129537815097

>  <compound_id>  (270) 
68660

>  <target_id>  (270) 
1

>  <reference_id>  (270) 
98

>  <inspiration_ids>  (270) 
[101, 98]

>  <energy_score>  (270) 
4.0750615668939645

>  <distance_score>  (270) 
16.385314430933384

>  <path>  (270) 
/opt/xchem-fragalysis-2/maxwin/BulkDock/SCRATCH/511024/C68660-P98/C68660-P98.minimised.mol

>  <scratch_subdir>  (270) 
/opt/xchem-fragalysis-2/maxwin/BulkDock/SCRATCH/511024/C68660-P98

>  <fragmenstein_runtime>  (270) 
34.66322374343872

>  <fragmenstein_outcome>  (270) 
too moved

>  <fragmenstein_mode>  (270) 
expansion

>  <fragmenstein_error>  (270) 


$$$$
C68661-P101
     RDKit          3D

 42 43  0  0  0  0  0  0  0  0999 V2000
   -5.0721  -17.4423   26.2027 C   0  0  0  0  0  0  0  0  0  0  0  0
   -4.2024  -16.2857   25.8839 C   0  0  0  0  0  0  0  0  0  0  0  0
   -3.0672  -16.2768   25.2096 N   0  0  0  0  0  0  0  0  0  0  0  0
   -2.5069  -14.9925   25.2438 C   0  0  0  0  0  0  0  0  0  0  0  0
   -0.9611  -14.3182   24.4214 C   0  0  0  0  0  0  0  0  0  0  0  0
    0.8693  -14.0589   23.8274 C   0  0  0  0  0  0  0  0  0  0  0  0
    1.4713  -14.9481   23.3966 O   0  0  0  0  0  0  0  0  0  0  0  0
    1.7427  -12.4535   23.7112 N   0  0  0  0  0  0  0  0  0  0  0  0
    3.2841  -11.9821   22.9476 C   0  0  0  0  0  0  0  0  0  0  0  0
    4.5023  -10.2898   23.0196 C   0  0  0  0  0  0  0  0  0  0  0  0
    4.5444   -8.1572   22.9040 C   0  0  0  0  0  0  0  0  0  0  0  0
    5.9265   -7.1122   22.1260 N   0  0  0  0  0  0  0  0  0  0  0  0
    6.6380   -7.3046   20.5285 C   0  0  0  0  0  0  0  0  0  0  0  0
    8.2262   -8.4603   20.3049 C   0  0  0  0  0  0  0  0  0  0  0  0
    9.1236   -8.7161   21.8621 C   0  0  0  0  0  0  0  0  0  0  0  0
    8.3159   -8.1615   23.2045 C   0  0  0  0  0  0  0  0  0  0  0  0
    7.0753   -6.9292   23.0926 C   0  0  0  0  0  0  0  0  0  0  0  0
    7.1722   -5.9094   23.7768 O   0  0  0  0  0  0  0  0  0  0  0  0
   -3.5141  -14.1996   25.8192 C   0  0  0  0  0  0  0  0  0  0  0  0
   -4.5233  -15.0172   26.2499 N   0  0  0  0  0  0  0  0  0  0  0  0
   -4.4675  -18.3043   26.5008 H   0  0  0  0  0  0  0  0  0  0  0  0
   -5.6676  -17.7201   25.3280 H   0  0  0  0  0  0  0  0  0  0  0  0
   -5.7579  -17.2152   27.0253 H   0  0  0  0  0  0  0  0  0  0  0  0
   -1.3060  -13.5277   25.0859 H   0  0  0  0  0  0  0  0  0  0  0  0
   -1.2782  -14.7736   23.4983 H   0  0  0  0  0  0  0  0  0  0  0  0
    1.1218  -11.7493   24.0244 H   0  0  0  0  0  0  0  0  0  0  0  0
    3.4833  -12.4976   22.0071 H   0  0  0  0  0  0  0  0  0  0  0  0
    3.6666  -12.7643   23.5883 H   0  0  0  0  0  0  0  0  0  0  0  0
    3.4174  -10.1898   23.0488 H   0  0  0  0  0  0  0  0  0  0  0  0
    5.1441  -10.7741   22.2844 H   0  0  0  0  0  0  0  0  0  0  0  0
    3.5756   -7.6422   22.9014 H   0  0  0  0  0  0  0  0  0  0  0  0
    4.8514   -7.8243   23.9407 H   0  0  0  0  0  0  0  0  0  0  0  0
    5.9680   -7.5509   19.7041 H   0  0  0  0  0  0  0  0  0  0  0  0
    6.6751   -6.2378   20.2393 H   0  0  0  0  0  0  0  0  0  0  0  0
    9.1387   -8.2376   19.7715 H   0  0  0  0  0  0  0  0  0  0  0  0
    7.9363   -9.4112   19.8149 H   0  0  0  0  0  0  0  0  0  0  0  0
    9.2755   -9.8036   21.9683 H   0  0  0  0  0  0  0  0  0  0  0  0
   10.1422   -8.3342   21.7548 H   0  0  0  0  0  0  0  0  0  0  0  0
    9.0434   -7.8328   23.9515 H   0  0  0  0  0  0  0  0  0  0  0  0
    7.9536   -9.0299   23.7712 H   0  0  0  0  0  0  0  0  0  0  0  0
   -3.6044  -13.1291   25.9232 H   0  0  0  0  0  0  0  0  0  0  0  0
   -5.3666  -14.7290   26.7260 H   0  0  0  0  0  0  0  0  0  0  0  0
  1  2  1  0
  2  3  2  0
  3  4  1  0
  4  5  1  0
  5  6  1  0
  6  7  2  0
  6  8  1  0
  8  9  1  0
  9 10  1  0
 10 11  1  0
 11 12  1  0
 12 13  1  0
 13 14  1  0
 14 15  1  0
 15 16  1  0
 16 17  1  0
 17 18  2  0
  4 19  2  0
 19 20  1  0
 20  2  1  0
 17 12  1  0
  1 21  1  0
  1 22  1  0
  1 23  1  0
  5 24  1  0
  5 25  1  0
  8 26  1  0
  9 27  1  0
  9 28  1  0
 10 29  1  0
 10 30  1  0
 11 31  1  0
 11 32  1  0
 13 33  1  0
 13 34  1  0
 14 35  1  0
 14 36  1  0
 15 37  1  0
 15 38  1  0
 16 39  1  0
 16 40  1  0
 19 41  1  0
 20 42  1  0
M  END
>  <Energy>  (271) 
741.35040591711595

>  <compound_id>  (271) 
68661

>  <target_id>  (271) 
1

>  <reference_id>  (271) 
101

>  <inspiration_ids>  (271) 
[101, 98]

>  <energy_score>  (271) 
723.0106536040745

>  <distance_score>  (271) 
11.934629096125587

>  <path>  (271) 
/opt/xchem-fragalysis-2/maxwin/BulkDock/SCRATCH/511024/C68661-P101/C68661-P101.minimised.mol

>  <scratch_subdir>  (271) 
/opt/xchem-fragalysis-2/maxwin/BulkDock/SCRATCH/511024/C68661-P101

>  <fragmenstein_runtime>  (271) 
20.515909671783447

>  <fragmenstein_outcome>  (271) 
too moved

>  <fragmenstein_mode>  (271) 
expansion

>  <fragmenstein_error>  (271) 


$$$$
C68661-P98
     RDKit          3D

 42 43  0  0  0  0  0  0  0  0999 V2000
    2.9974  -14.4392   31.2433 C   0  0  0  0  0  0  0  0  0  0  0  0
    3.4259  -13.1644   30.6220 C   0  0  0  0  0  0  0  0  0  0  0  0
    4.6197  -12.9030   30.1379 N   0  0  0  0  0  0  0  0  0  0  0  0
    4.6480  -11.5742   29.7440 C   0  0  0  0  0  0  0  0  0  0  0  0
    5.9937  -10.9217   29.3503 C   0  0  0  0  0  0  0  0  0  0  0  0
    6.0405   -9.9272   28.1512 C   0  0  0  0  0  0  0  0  0  0  0  0
    5.0383   -9.3152   27.9030 O   0  0  0  0  0  0  0  0  0  0  0  0
    7.3823   -9.8596   27.5407 N   0  0  0  0  0  0  0  0  0  0  0  0
    7.9315   -8.9522   26.5047 C   0  0  0  0  0  0  0  0  0  0  0  0
    9.3401   -9.2688   25.8916 C   0  0  0  0  0  0  0  0  0  0  0  0
    9.7999   -8.1921   24.8706 C   0  0  0  0  0  0  0  0  0  0  0  0
   11.1094   -8.4231   24.2325 N   0  0  0  0  0  0  0  0  0  0  0  0
   11.2905   -9.5907   23.3864 C   0  0  0  0  0  0  0  0  0  0  0  0
   11.8159   -9.1956   22.0166 C   0  0  0  0  0  0  0  0  0  0  0  0
   13.0541   -8.2939   22.0886 C   0  0  0  0  0  0  0  0  0  0  0  0
   13.3703   -7.8303   23.4972 C   0  0  0  0  0  0  0  0  0  0  0  0
   12.1069   -7.4416   24.2311 C   0  0  0  0  0  0  0  0  0  0  0  0
   11.9993   -6.3418   24.7632 O   0  0  0  0  0  0  0  0  0  0  0  0
    3.3885  -11.0453   29.9656 C   0  0  0  0  0  0  0  0  0  0  0  0
    2.6390  -12.0457   30.5354 N   0  0  0  0  0  0  0  0  0  0  0  0
    2.8258  -15.1984   30.4747 H   0  0  0  0  0  0  0  0  0  0  0  0
    2.0796  -14.3169   31.8263 H   0  0  0  0  0  0  0  0  0  0  0  0
    3.7765  -14.8090   31.9173 H   0  0  0  0  0  0  0  0  0  0  0  0
    6.7303  -11.7056   29.1713 H   0  0  0  0  0  0  0  0  0  0  0  0
    6.3420  -10.3590   30.2264 H   0  0  0  0  0  0  0  0  0  0  0  0
    8.0132  -10.4630   28.0570 H   0  0  0  0  0  0  0  0  0  0  0  0
    7.1821   -8.9059   25.7067 H   0  0  0  0  0  0  0  0  0  0  0  0
    7.9575   -7.9594   26.9683 H   0  0  0  0  0  0  0  0  0  0  0  0
   10.0758   -9.3411   26.7013 H   0  0  0  0  0  0  0  0  0  0  0  0
    9.3019  -10.2552   25.4158 H   0  0  0  0  0  0  0  0  0  0  0  0
    9.8125   -7.2216   25.3786 H   0  0  0  0  0  0  0  0  0  0  0  0
    9.0569   -8.1338   24.0665 H   0  0  0  0  0  0  0  0  0  0  0  0
   10.3394  -10.1225   23.2775 H   0  0  0  0  0  0  0  0  0  0  0  0
   11.9935  -10.2622   23.8928 H   0  0  0  0  0  0  0  0  0  0  0  0
   11.0187   -8.6738   21.4743 H   0  0  0  0  0  0  0  0  0  0  0  0
   12.0428  -10.1021   21.4436 H   0  0  0  0  0  0  0  0  0  0  0  0
   13.9236   -8.8211   21.6787 H   0  0  0  0  0  0  0  0  0  0  0  0
   12.9014   -7.4152   21.4526 H   0  0  0  0  0  0  0  0  0  0  0  0
   13.8689   -8.6213   24.0695 H   0  0  0  0  0  0  0  0  0  0  0  0
   14.0518   -6.9732   23.4673 H   0  0  0  0  0  0  0  0  0  0  0  0
    2.9956  -10.0462   29.8363 H   0  0  0  0  0  0  0  0  0  0  0  0
    1.6934  -11.9556   30.8792 H   0  0  0  0  0  0  0  0  0  0  0  0
  1  2  1  0
  2  3  2  0
  3  4  1  0
  4  5  1  0
  5  6  1  0
  6  7  2  0
  6  8  1  0
  8  9  1  0
  9 10  1  0
 10 11  1  0
 11 12  1  0
 12 13  1  0
 13 14  1  0
 14 15  1  0
 15 16  1  0
 16 17  1  0
 17 18  2  0
  4 19  2  0
 19 20  1  0
 20  2  1  0
 17 12  1  0
  1 21  1  0
  1 22  1  0
  1 23  1  0
  5 24  1  0
  5 25  1  0
  8 26  1  0
  9 27  1  0
  9 28  1  0
 10 29  1  0
 10 30  1  0
 11 31  1  0
 11 32  1  0
 13 33  1  0
 13 34  1  0
 14 35  1  0
 14 36  1  0
 15 37  1  0
 15 38  1  0
 16 39  1  0
 16 40  1  0
 19 41  1  0
 20 42  1  0
M  END
>  <Energy>  (272) 
8.8095492736327365

>  <compound_id>  (272) 
68661

>  <target_id>  (272) 
1

>  <reference_id>  (272) 
98

>  <inspiration_ids>  (272) 
[101, 98]

>  <energy_score>  (272) 
-9.530203039395076

>  <distance_score>  (272) 
14.843061091814516

>  <path>  (272) 
/opt/xchem-fragalysis-2/maxwin/BulkDock/SCRATCH/511024/C68661-P98/C68661-P98.minimised.mol

>  <scratch_subdir>  (272) 
/opt/xchem-fragalysis-2/maxwin/BulkDock/SCRATCH/511024/C68661-P98

>  <fragmenstein_runtime>  (272) 
24.564809560775757

>  <fragmenstein_outcome>  (272) 
too moved

>  <fragmenstein_mode>  (272) 
expansion

>  <fragmenstein_error>  (272) 


$$$$
C68662-P101
     RDKit          3D

 46 47  0  0  0  0  0  0  0  0999 V2000
    3.9514  -14.7978   26.6900 C   0  0  0  0  0  0  0  0  0  0  0  0
    4.6919  -14.8655   25.3323 C   0  0  0  0  0  0  0  0  0  0  0  0
    5.8502  -13.3520   25.8767 C   0  0  0  0  0  0  0  0  0  0  0  0
    7.1313  -12.8117   25.2824 N   0  0  0  0  0  0  0  0  0  0  0  0
    8.4058  -12.4423   25.9142 C   0  0  0  0  0  0  0  0  0  0  0  0
    8.7755  -12.5533   27.0473 O   0  0  0  0  0  0  0  0  0  0  0  0
    9.2713  -11.7140   24.8268 C   0  0  0  0  0  0  0  0  0  0  0  0
   10.7622  -11.3621   25.0486 C   0  0  0  0  0  0  0  0  0  0  0  0
   11.3541  -10.3946   24.0796 N   0  0  0  0  0  0  0  0  0  0  0  0
   11.3390   -8.9714   24.3270 C   0  0  0  0  0  0  0  0  0  0  0  0
   12.0244   -8.3890   23.1049 C   0  0  0  0  0  0  0  0  0  0  0  0
   13.0505   -9.4343   22.7396 C   0  0  0  0  0  0  0  0  0  0  0  0
   12.3568  -10.7090   23.1538 C   0  0  0  0  0  0  0  0  0  0  0  0
   12.6665  -11.8076   22.7280 O   0  0  0  0  0  0  0  0  0  0  0  0
    4.4357  -16.5661   24.2475 C   0  0  0  0  0  0  0  0  0  0  0  0
    3.1494  -17.9202   23.8250 N   0  0  0  0  0  0  0  0  0  0  0  0
    3.1496  -19.2198   22.5108 C   0  0  0  0  0  0  0  0  0  0  0  0
    4.0782  -19.4405   21.7786 O   0  0  0  0  0  0  0  0  0  0  0  0
    1.6914  -20.2192   21.9757 C   0  0  0  0  0  0  0  0  0  0  0  0
    0.3039  -20.4015   22.2746 C   0  0  0  0  0  0  0  0  0  0  0  0
   -0.4927  -20.9192   21.2767 N   0  0  0  0  0  0  0  0  0  0  0  0
    0.2787  -20.8689   20.2289 C   0  0  0  0  0  0  0  0  0  0  0  0
    1.5313  -20.4078   20.5458 N   0  0  0  0  0  0  0  0  0  0  0  0
    4.4224  -14.1341   27.3985 H   0  0  0  0  0  0  0  0  0  0  0  0
    3.0396  -14.2185   26.6640 H   0  0  0  0  0  0  0  0  0  0  0  0
    3.8296  -15.7529   27.2111 H   0  0  0  0  0  0  0  0  0  0  0  0
    5.6480  -15.3177   25.4423 H   0  0  0  0  0  0  0  0  0  0  0  0
    5.9493  -13.1631   26.9520 H   0  0  0  0  0  0  0  0  0  0  0  0
    5.3446  -12.5092   25.5229 H   0  0  0  0  0  0  0  0  0  0  0  0
    7.1345  -12.4954   24.3202 H   0  0  0  0  0  0  0  0  0  0  0  0
    8.7373  -10.7688   24.6708 H   0  0  0  0  0  0  0  0  0  0  0  0
    9.2115  -12.3206   23.9216 H   0  0  0  0  0  0  0  0  0  0  0  0
   10.9080  -10.9515   26.0540 H   0  0  0  0  0  0  0  0  0  0  0  0
   11.3458  -12.2886   24.9987 H   0  0  0  0  0  0  0  0  0  0  0  0
   10.3112   -8.6184   24.4443 H   0  0  0  0  0  0  0  0  0  0  0  0
   11.9110   -8.7698   25.2390 H   0  0  0  0  0  0  0  0  0  0  0  0
   12.4602   -7.4033   23.2843 H   0  0  0  0  0  0  0  0  0  0  0  0
   11.3065   -8.3266   22.2824 H   0  0  0  0  0  0  0  0  0  0  0  0
   13.9709   -9.3266   23.3214 H   0  0  0  0  0  0  0  0  0  0  0  0
   13.2767   -9.4379   21.6720 H   0  0  0  0  0  0  0  0  0  0  0  0
    4.0301  -17.1462   25.1005 H   0  0  0  0  0  0  0  0  0  0  0  0
    3.9172  -15.9200   23.5397 H   0  0  0  0  0  0  0  0  0  0  0  0
    2.3069  -17.9868   24.3544 H   0  0  0  0  0  0  0  0  0  0  0  0
   -0.1691  -20.0926   23.1608 H   0  0  0  0  0  0  0  0  0  0  0  0
    0.0100  -21.1446   19.2191 H   0  0  0  0  0  0  0  0  0  0  0  0
    2.3042  -20.2923   19.9025 H   0  0  0  0  0  0  0  0  0  0  0  0
  1  2  1  0
  2  3  1  0
  3  4  1  0
  4  5  1  0
  5  6  2  0
  5  7  1  0
  7  8  1  0
  8  9  1  0
  9 10  1  0
 10 11  1  0
 11 12  1  0
 12 13  1  0
 13 14  2  0
  2 15  1  0
 15 16  1  0
 16 17  1  0
 17 18  2  0
 17 19  1  0
 19 20  2  0
 20 21  1  0
 21 22  2  0
 22 23  1  0
 13  9  1  0
 23 19  1  0
  1 24  1  0
  1 25  1  0
  1 26  1  0
  2 27  1  0
  3 28  1  0
  3 29  1  0
  4 30  1  0
  7 31  1  0
  7 32  1  0
  8 33  1  0
  8 34  1  0
 10 35  1  0
 10 36  1  0
 11 37  1  0
 11 38  1  0
 12 39  1  0
 12 40  1  0
 15 41  1  0
 15 42  1  0
 16 43  1  0
 20 44  1  0
 22 45  1  0
 23 46  1  0
M  END
>  <Energy>  (273) 
376.90835544856702

>  <compound_id>  (273) 
68662

>  <target_id>  (273) 
1

>  <reference_id>  (273) 
101

>  <inspiration_ids>  (273) 
[101, 98]

>  <energy_score>  (273) 
405.82989994783964

>  <distance_score>  (273) 
12.539283813436137

>  <path>  (273) 
/opt/xchem-fragalysis-2/maxwin/BulkDock/SCRATCH/511024/C68662-P101/C68662-P101.minimised.mol

>  <scratch_subdir>  (273) 
/opt/xchem-fragalysis-2/maxwin/BulkDock/SCRATCH/511024/C68662-P101

>  <fragmenstein_runtime>  (273) 
31.438185930252075

>  <fragmenstein_outcome>  (273) 
too moved

>  <fragmenstein_mode>  (273) 
expansion

>  <fragmenstein_error>  (273) 


$$$$
C68662-P98
     RDKit          3D

 46 47  0  0  0  0  0  0  0  0999 V2000
    3.1490  -12.0774   22.7920 C   0  0  0  0  0  0  0  0  0  0  0  0
    3.2463  -13.1733   21.9010 C   0  0  0  0  0  0  0  0  0  0  0  0
    4.6050  -12.6814   20.5056 C   0  0  0  0  0  0  0  0  0  0  0  0
    6.1666  -11.9322   20.1818 N   0  0  0  0  0  0  0  0  0  0  0  0
    6.6262  -10.7149   19.0565 C   0  0  0  0  0  0  0  0  0  0  0  0
    5.9202  -10.2125   18.2068 O   0  0  0  0  0  0  0  0  0  0  0  0
    8.3317   -9.8250   19.0767 C   0  0  0  0  0  0  0  0  0  0  0  0
    9.8217   -8.6841   20.0081 C   0  0  0  0  0  0  0  0  0  0  0  0
   11.1435   -8.4811   21.3094 N   0  0  0  0  0  0  0  0  0  0  0  0
   12.5151   -7.7649   21.3256 C   0  0  0  0  0  0  0  0  0  0  0  0
   12.9062   -7.3710   22.7340 C   0  0  0  0  0  0  0  0  0  0  0  0
   12.2470   -8.4568   23.5063 C   0  0  0  0  0  0  0  0  0  0  0  0
   10.9591   -8.6402   22.7516 C   0  0  0  0  0  0  0  0  0  0  0  0
    9.9310   -8.8912   23.3528 O   0  0  0  0  0  0  0  0  0  0  0  0
    2.0826  -14.1399   23.3681 C   0  0  0  0  0  0  0  0  0  0  0  0
    0.0875  -14.2472   22.7998 N   0  0  0  0  0  0  0  0  0  0  0  0
   -1.4644  -14.7572   23.7225 C   0  0  0  0  0  0  0  0  0  0  0  0
   -1.3834  -14.9867   24.8243 O   0  0  0  0  0  0  0  0  0  0  0  0
   -3.2782  -15.0175   23.1852 C   0  0  0  0  0  0  0  0  0  0  0  0
   -4.1817  -15.0057   22.1031 C   0  0  0  0  0  0  0  0  0  0  0  0
   -5.4435  -15.4528   22.4699 N   0  0  0  0  0  0  0  0  0  0  0  0
   -5.3597  -15.7474   23.7443 C   0  0  0  0  0  0  0  0  0  0  0  0
   -4.1204  -15.4708   24.2365 N   0  0  0  0  0  0  0  0  0  0  0  0
    3.4783  -12.5745   23.6841 H   0  0  0  0  0  0  0  0  0  0  0  0
    2.1644  -11.7966   23.1159 H   0  0  0  0  0  0  0  0  0  0  0  0
    3.7821  -11.2533   22.4955 H   0  0  0  0  0  0  0  0  0  0  0  0
    2.8650  -13.6892   21.0229 H   0  0  0  0  0  0  0  0  0  0  0  0
    5.2079  -13.5374   20.6432 H   0  0  0  0  0  0  0  0  0  0  0  0
    4.6883  -11.8133   21.1150 H   0  0  0  0  0  0  0  0  0  0  0  0
    6.9557  -12.2161   20.6981 H   0  0  0  0  0  0  0  0  0  0  0  0
    8.7943  -10.2709   18.1780 H   0  0  0  0  0  0  0  0  0  0  0  0
    7.7912   -8.9530   18.7660 H   0  0  0  0  0  0  0  0  0  0  0  0
    9.6361   -7.7263   19.7033 H   0  0  0  0  0  0  0  0  0  0  0  0
    9.3797   -8.4083   20.8822 H   0  0  0  0  0  0  0  0  0  0  0  0
   13.3064   -8.4847   21.0716 H   0  0  0  0  0  0  0  0  0  0  0  0
   12.5320   -6.8618   20.7139 H   0  0  0  0  0  0  0  0  0  0  0  0
   12.5280   -6.3863   23.0240 H   0  0  0  0  0  0  0  0  0  0  0  0
   13.9915   -7.3480   22.8753 H   0  0  0  0  0  0  0  0  0  0  0  0
   12.0585   -8.1609   24.5416 H   0  0  0  0  0  0  0  0  0  0  0  0
   12.8087   -9.3962   23.4892 H   0  0  0  0  0  0  0  0  0  0  0  0
    2.7359  -15.0059   23.4229 H   0  0  0  0  0  0  0  0  0  0  0  0
    2.0214  -13.3510   24.1601 H   0  0  0  0  0  0  0  0  0  0  0  0
   -0.1430  -14.0154   21.9243 H   0  0  0  0  0  0  0  0  0  0  0  0
   -3.9615  -14.7549   21.0730 H   0  0  0  0  0  0  0  0  0  0  0  0
   -6.1543  -16.1467   24.3592 H   0  0  0  0  0  0  0  0  0  0  0  0
   -3.7823  -15.6208   25.1781 H   0  0  0  0  0  0  0  0  0  0  0  0
  1  2  1  0
  2  3  1  0
  3  4  1  0
  4  5  1  0
  5  6  2  0
  5  7  1  0
  7  8  1  0
  8  9  1  0
  9 10  1  0
 10 11  1  0
 11 12  1  0
 12 13  1  0
 13 14  2  0
  2 15  1  0
 15 16  1  0
 16 17  1  0
 17 18  2  0
 17 19  1  0
 19 20  2  0
 20 21  1  0
 21 22  2  0
 22 23  1  0
 13  9  1  0
 23 19  1  0
  1 24  1  0
  1 25  1  0
  1 26  1  0
  2 27  1  0
  3 28  1  0
  3 29  1  0
  4 30  1  0
  7 31  1  0
  7 32  1  0
  8 33  1  0
  8 34  1  0
 10 35  1  0
 10 36  1  0
 11 37  1  0
 11 38  1  0
 12 39  1  0
 12 40  1  0
 15 41  1  0
 15 42  1  0
 16 43  1  0
 20 44  1  0
 22 45  1  0
 23 46  1  0
M  END
>  <Energy>  (274) 
861.95897883468695

>  <compound_id>  (274) 
68662

>  <target_id>  (274) 
1

>  <reference_id>  (274) 
98

>  <inspiration_ids>  (274) 
[101, 98]

>  <energy_score>  (274) 
890.8805233339801

>  <distance_score>  (274) 
11.184075749237875

>  <path>  (274) 
/opt/xchem-fragalysis-2/maxwin/BulkDock/SCRATCH/511024/C68662-P98/C68662-P98.minimised.mol

>  <scratch_subdir>  (274) 
/opt/xchem-fragalysis-2/maxwin/BulkDock/SCRATCH/511024/C68662-P98

>  <fragmenstein_runtime>  (274) 
38.74239182472229

>  <fragmenstein_outcome>  (274) 
too moved

>  <fragmenstein_mode>  (274) 
expansion

>  <fragmenstein_error>  (274) 


$$$$
C68663-P101
     RDKit          3D

 33 34  0  0  0  0  0  0  0  0999 V2000
    2.6458  -17.6459   27.2344 O   0  0  0  0  0  0  0  0  0  0  0  0
    2.9222  -18.1044   26.1406 C   0  0  0  0  0  0  0  0  0  0  0  0
    2.4847  -19.5884   25.7810 C   0  0  0  0  0  0  0  0  0  0  0  0
    1.0200  -19.9603   26.0675 C   0  0  0  0  0  0  0  0  0  0  0  0
    0.0837  -20.6485   25.3091 C   0  0  0  0  0  0  0  0  0  0  0  0
   -1.1342  -20.7274   25.9444 N   0  0  0  0  0  0  0  0  0  0  0  0
   -0.9451  -20.1446   27.1050 C   0  0  0  0  0  0  0  0  0  0  0  0
    0.3379  -19.6747   27.2318 N   0  0  0  0  0  0  0  0  0  0  0  0
    3.7489  -17.4871   24.9602 N   0  0  0  0  0  0  0  0  0  0  0  0
    4.5334  -15.7160   24.7357 C   0  0  0  0  0  0  0  0  0  0  0  0
    5.0124  -14.2174   25.6780 C   0  0  0  0  0  0  0  0  0  0  0  0
    6.5782  -13.2936   25.7397 N   0  0  0  0  0  0  0  0  0  0  0  0
    6.7454  -11.8958   25.3476 C   0  0  0  0  0  0  0  0  0  0  0  0
    8.1921  -11.6199   25.0000 C   0  0  0  0  0  0  0  0  0  0  0  0
    8.8648  -12.4125   26.0656 C   0  0  0  0  0  0  0  0  0  0  0  0
    7.9471  -13.6147   26.1926 C   0  0  0  0  0  0  0  0  0  0  0  0
    8.4031  -14.6856   26.5430 O   0  0  0  0  0  0  0  0  0  0  0  0
    3.1244  -20.2483   26.3805 H   0  0  0  0  0  0  0  0  0  0  0  0
    2.7053  -19.8108   24.7346 H   0  0  0  0  0  0  0  0  0  0  0  0
    0.2290  -21.0669   24.3195 H   0  0  0  0  0  0  0  0  0  0  0  0
   -1.6831  -20.0205   27.8861 H   0  0  0  0  0  0  0  0  0  0  0  0
    0.7111  -19.1516   28.0151 H   0  0  0  0  0  0  0  0  0  0  0  0
    3.7110  -18.1118   24.1585 H   0  0  0  0  0  0  0  0  0  0  0  0
    3.9804  -15.3494   23.8683 H   0  0  0  0  0  0  0  0  0  0  0  0
    4.0321  -15.5864   25.7095 H   0  0  0  0  0  0  0  0  0  0  0  0
    4.2478  -13.6441   25.1915 H   0  0  0  0  0  0  0  0  0  0  0  0
    4.5348  -14.1461   26.6807 H   0  0  0  0  0  0  0  0  0  0  0  0
    6.1987  -11.6569   24.4486 H   0  0  0  0  0  0  0  0  0  0  0  0
    6.4955  -11.3059   26.2344 H   0  0  0  0  0  0  0  0  0  0  0  0
    8.4426  -12.0121   24.0087 H   0  0  0  0  0  0  0  0  0  0  0  0
    8.4417  -10.5559   25.0255 H   0  0  0  0  0  0  0  0  0  0  0  0
    9.8719  -12.7183   25.7705 H   0  0  0  0  0  0  0  0  0  0  0  0
    8.9006  -11.8913   27.0274 H   0  0  0  0  0  0  0  0  0  0  0  0
  1  2  2  0
  2  3  1  0
  3  4  1  0
  4  5  2  0
  5  6  1  0
  6  7  2  0
  7  8  1  0
  2  9  1  0
  9 10  1  0
 10 11  1  0
 11 12  1  0
 12 13  1  0
 13 14  1  0
 14 15  1  0
 15 16  1  0
 16 17  2  0
  8  4  1  0
 16 12  1  0
  3 18  1  0
  3 19  1  0
  5 20  1  0
  7 21  1  0
  8 22  1  0
  9 23  1  0
 10 24  1  0
 10 25  1  0
 11 26  1  0
 11 27  1  0
 13 28  1  0
 13 29  1  0
 14 30  1  0
 14 31  1  0
 15 32  1  0
 15 33  1  0
M  END
>  <Energy>  (275) 
229.07502707355647

>  <compound_id>  (275) 
68663

>  <target_id>  (275) 
1

>  <reference_id>  (275) 
101

>  <inspiration_ids>  (275) 
[101, 98]

>  <energy_score>  (275) 
214.40307713760768

>  <distance_score>  (275) 
14.348213069465949

>  <path>  (275) 
/opt/xchem-fragalysis-2/maxwin/BulkDock/SCRATCH/511024/C68663-P101/C68663-P101.minimised.mol

>  <scratch_subdir>  (275) 
/opt/xchem-fragalysis-2/maxwin/BulkDock/SCRATCH/511024/C68663-P101

>  <fragmenstein_runtime>  (275) 
12.406694412231445

>  <fragmenstein_outcome>  (275) 
too moved

>  <fragmenstein_mode>  (275) 
expansion

>  <fragmenstein_error>  (275) 


$$$$
C68663-P98
     RDKit          3D

 33 34  0  0  0  0  0  0  0  0999 V2000
    4.0394   -8.2933   23.1187 O   0  0  0  0  0  0  0  0  0  0  0  0
    4.7758   -8.9123   22.4067 C   0  0  0  0  0  0  0  0  0  0  0  0
    4.8732  -10.5013   22.4411 C   0  0  0  0  0  0  0  0  0  0  0  0
    3.6157  -11.6168   22.7792 C   0  0  0  0  0  0  0  0  0  0  0  0
    2.4384  -11.9346   23.4842 C   0  0  0  0  0  0  0  0  0  0  0  0
    2.3827  -13.0397   24.1737 N   0  0  0  0  0  0  0  0  0  0  0  0
    2.9852  -13.7392   23.3184 C   0  0  0  0  0  0  0  0  0  0  0  0
    3.3337  -12.7972   22.1546 N   0  0  0  0  0  0  0  0  0  0  0  0
    5.6632   -8.4574   21.3033 N   0  0  0  0  0  0  0  0  0  0  0  0
    5.8354   -7.1147   20.6797 C   0  0  0  0  0  0  0  0  0  0  0  0
    6.5395   -7.2863   19.2701 C   0  0  0  0  0  0  0  0  0  0  0  0
    7.5303   -6.2763   18.6394 N   0  0  0  0  0  0  0  0  0  0  0  0
    9.5810   -5.7750   18.9776 C   0  0  0  0  0  0  0  0  0  0  0  0
   10.2962   -4.7266   17.1817 C   0  0  0  0  0  0  0  0  0  0  0  0
    8.4048   -4.6103   16.0035 C   0  0  0  0  0  0  0  0  0  0  0  0
    7.0587   -5.8699   16.9216 C   0  0  0  0  0  0  0  0  0  0  0  0
    6.0652   -6.3628   16.4001 O   0  0  0  0  0  0  0  0  0  0  0  0
    5.7416  -10.6511   23.1042 H   0  0  0  0  0  0  0  0  0  0  0  0
    5.3033  -10.8586   21.4927 H   0  0  0  0  0  0  0  0  0  0  0  0
    1.4395  -11.6803   23.1818 H   0  0  0  0  0  0  0  0  0  0  0  0
    3.1911  -14.7963   23.2831 H   0  0  0  0  0  0  0  0  0  0  0  0
    3.6097  -13.1489   21.2365 H   0  0  0  0  0  0  0  0  0  0  0  0
    6.2104   -9.2430   20.9696 H   0  0  0  0  0  0  0  0  0  0  0  0
    6.3452   -6.4688   21.3936 H   0  0  0  0  0  0  0  0  0  0  0  0
    4.8333   -6.6935   20.5429 H   0  0  0  0  0  0  0  0  0  0  0  0
    5.7198   -7.3883   18.5508 H   0  0  0  0  0  0  0  0  0  0  0  0
    7.0332   -8.2653   19.2718 H   0  0  0  0  0  0  0  0  0  0  0  0
    9.1626   -4.9432   19.6724 H   0  0  0  0  0  0  0  0  0  0  0  0
   10.2124   -5.8850   19.8627 H   0  0  0  0  0  0  0  0  0  0  0  0
   10.9278   -3.8142   17.0247 H   0  0  0  0  0  0  0  0  0  0  0  0
   11.1139   -5.3496   16.7230 H   0  0  0  0  0  0  0  0  0  0  0  0
    7.8274   -3.6211   15.7516 H   0  0  0  0  0  0  0  0  0  0  0  0
    8.8562   -4.5972   14.9817 H   0  0  0  0  0  0  0  0  0  0  0  0
  1  2  2  0
  2  3  1  0
  3  4  1  0
  4  5  2  0
  5  6  1  0
  6  7  2  0
  7  8  1  0
  2  9  1  0
  9 10  1  0
 10 11  1  0
 11 12  1  0
 12 13  1  0
 13 14  1  0
 14 15  1  0
 15 16  1  0
 16 17  2  0
  8  4  1  0
 16 12  1  0
  3 18  1  0
  3 19  1  0
  5 20  1  0
  7 21  1  0
  8 22  1  0
  9 23  1  0
 10 24  1  0
 10 25  1  0
 11 26  1  0
 11 27  1  0
 13 28  1  0
 13 29  1  0
 14 30  1  0
 14 31  1  0
 15 32  1  0
 15 33  1  0
M  END
>  <Energy>  (276) 
678.7996929549663

>  <compound_id>  (276) 
68663

>  <target_id>  (276) 
1

>  <reference_id>  (276) 
98

>  <inspiration_ids>  (276) 
[101, 98]

>  <energy_score>  (276) 
664.127743019022

>  <distance_score>  (276) 
14.476719685449268

>  <path>  (276) 
/opt/xchem-fragalysis-2/maxwin/BulkDock/SCRATCH/511024/C68663-P98/C68663-P98.minimised.mol

>  <scratch_subdir>  (276) 
/opt/xchem-fragalysis-2/maxwin/BulkDock/SCRATCH/511024/C68663-P98

>  <fragmenstein_runtime>  (276) 
17.22477912902832

>  <fragmenstein_outcome>  (276) 
too moved

>  <fragmenstein_mode>  (276) 
expansion

>  <fragmenstein_error>  (276) 


$$$$
C68664-P101
     RDKit          3D

 47 50  0  0  0  0  0  0  0  0999 V2000
   -0.6425  -16.1106   14.3109 O   0  0  0  0  0  0  0  0  0  0  0  0
   -1.4360  -15.4489   14.9286 C   0  0  0  0  0  0  0  0  0  0  0  0
   -1.2072  -13.8780   15.0125 C   0  0  0  0  0  0  0  0  0  0  0  0
    0.1995  -13.2158   14.7504 C   0  0  0  0  0  0  0  0  0  0  0  0
    0.4707  -11.8965   14.3886 C   0  0  0  0  0  0  0  0  0  0  0  0
    1.8121  -11.5988   14.4160 N   0  0  0  0  0  0  0  0  0  0  0  0
    2.4144  -12.7220   14.7285 C   0  0  0  0  0  0  0  0  0  0  0  0
    3.9810  -12.8394   14.8337 C   0  0  0  0  0  0  0  0  0  0  0  0
    4.7921  -11.6852   15.3839 C   0  0  0  0  0  0  0  0  0  0  0  0
    4.6322  -12.9463   16.1855 C   0  0  0  0  0  0  0  0  0  0  0  0
    1.4827  -13.7398   14.9067 N   0  0  0  0  0  0  0  0  0  0  0  0
   -2.6549  -15.8617   15.7106 N   0  0  0  0  0  0  0  0  0  0  0  0
   -3.2039  -17.2460   16.0452 C   0  0  0  0  0  0  0  0  0  0  0  0
   -3.8130  -17.4449   17.5135 C   0  0  0  0  0  0  0  0  0  0  0  0
   -4.3185  -18.8409   18.0501 C   0  0  0  0  0  0  0  0  0  0  0  0
   -4.6385  -18.7589   19.5832 C   0  0  0  0  0  0  0  0  0  0  0  0
   -4.9864  -20.1430   20.1500 C   0  0  0  0  0  0  0  0  0  0  0  0
   -5.0241  -21.1471   19.0007 C   0  0  0  0  0  0  0  0  0  0  0  0
   -6.0396  -20.7032   17.9491 C   0  0  0  0  0  0  0  0  0  0  0  0
   -5.6247  -19.3338   17.3792 C   0  0  0  0  0  0  0  0  0  0  0  0
   -3.7212  -21.2086   18.3981 O   0  0  0  0  0  0  0  0  0  0  0  0
   -3.2681  -19.9504   17.8716 C   0  0  0  0  0  0  0  0  0  0  0  0
   -1.9062  -13.4376   14.2895 H   0  0  0  0  0  0  0  0  0  0  0  0
   -1.5157  -13.5453   16.0119 H   0  0  0  0  0  0  0  0  0  0  0  0
   -0.2542  -11.1260   14.1552 H   0  0  0  0  0  0  0  0  0  0  0  0
    4.4271  -13.3924   14.0138 H   0  0  0  0  0  0  0  0  0  0  0  0
    4.2644  -10.8005   15.7248 H   0  0  0  0  0  0  0  0  0  0  0  0
    5.7573  -11.4793   14.9370 H   0  0  0  0  0  0  0  0  0  0  0  0
    4.0337  -12.8784   17.0858 H   0  0  0  0  0  0  0  0  0  0  0  0
    5.5001  -13.5873   16.2876 H   0  0  0  0  0  0  0  0  0  0  0  0
    1.7066  -14.7022   15.1217 H   0  0  0  0  0  0  0  0  0  0  0  0
   -3.1397  -15.0331   16.0350 H   0  0  0  0  0  0  0  0  0  0  0  0
   -2.3917  -17.9581   15.8723 H   0  0  0  0  0  0  0  0  0  0  0  0
   -3.9889  -17.4402   15.3076 H   0  0  0  0  0  0  0  0  0  0  0  0
   -4.6561  -16.7492   17.5889 H   0  0  0  0  0  0  0  0  0  0  0  0
   -3.0388  -17.0958   18.2082 H   0  0  0  0  0  0  0  0  0  0  0  0
   -5.4811  -18.0788   19.7544 H   0  0  0  0  0  0  0  0  0  0  0  0
   -3.7821  -18.3461   20.1301 H   0  0  0  0  0  0  0  0  0  0  0  0
   -5.9444  -20.1089   20.6804 H   0  0  0  0  0  0  0  0  0  0  0  0
   -4.2164  -20.4355   20.8734 H   0  0  0  0  0  0  0  0  0  0  0  0
   -5.2702  -22.1461   19.3741 H   0  0  0  0  0  0  0  0  0  0  0  0
   -6.0663  -21.4304   17.1289 H   0  0  0  0  0  0  0  0  0  0  0  0
   -7.0482  -20.6494   18.3739 H   0  0  0  0  0  0  0  0  0  0  0  0
   -6.4339  -18.6091   17.5325 H   0  0  0  0  0  0  0  0  0  0  0  0
   -5.4852  -19.4164   16.2942 H   0  0  0  0  0  0  0  0  0  0  0  0
   -3.0312  -20.1090   16.8142 H   0  0  0  0  0  0  0  0  0  0  0  0
   -2.3331  -19.6949   18.3827 H   0  0  0  0  0  0  0  0  0  0  0  0
  1  2  2  0
  2  3  1  0
  3  4  1  0
  4  5  2  0
  5  6  1  0
  6  7  2  0
  7  8  1  0
  8  9  1  0
  9 10  1  0
  7 11  1  0
  2 12  1  0
 12 13  1  0
 13 14  1  0
 14 15  1  0
 15 16  1  0
 16 17  1  0
 17 18  1  0
 18 19  1  0
 19 20  1  0
 18 21  1  0
 21 22  1  0
 11  4  1  0
 20 15  1  0
 10  8  1  0
 22 15  1  0
  3 23  1  0
  3 24  1  0
  5 25  1  0
  8 26  1  0
  9 27  1  0
  9 28  1  0
 10 29  1  0
 10 30  1  0
 11 31  1  0
 12 32  1  0
 13 33  1  0
 13 34  1  0
 14 35  1  0
 14 36  1  0
 16 37  1  0
 16 38  1  0
 17 39  1  0
 17 40  1  0
 18 41  1  0
 19 42  1  0
 19 43  1  0
 20 44  1  0
 20 45  1  0
 22 46  1  0
 22 47  1  0
M  END
>  <Energy>  (277) 
68.32928236234612

>  <compound_id>  (277) 
68664

>  <target_id>  (277) 
1

>  <reference_id>  (277) 
101

>  <inspiration_ids>  (277) 
[101, 98]

>  <energy_score>  (277) 
-4.095569543514557

>  <distance_score>  (277) 
15.49706776411365

>  <path>  (277) 
/opt/xchem-fragalysis-2/maxwin/BulkDock/SCRATCH/511024/C68664-P101/C68664-P101.minimised.mol

>  <scratch_subdir>  (277) 
/opt/xchem-fragalysis-2/maxwin/BulkDock/SCRATCH/511024/C68664-P101

>  <fragmenstein_runtime>  (277) 
28.759042263031006

>  <fragmenstein_outcome>  (277) 
too moved

>  <fragmenstein_mode>  (277) 
expansion

>  <fragmenstein_error>  (277) 


$$$$
C68664-P98
     RDKit          3D

 47 50  0  0  0  0  0  0  0  0999 V2000
   -0.1105  -14.4697   22.3974 O   0  0  0  0  0  0  0  0  0  0  0  0
    0.1059  -14.0409   23.4912 C   0  0  0  0  0  0  0  0  0  0  0  0
    1.9960  -13.1473   23.8791 C   0  0  0  0  0  0  0  0  0  0  0  0
    3.1964  -12.5617   22.4992 C   0  0  0  0  0  0  0  0  0  0  0  0
    3.9936  -11.4429   22.3161 C   0  0  0  0  0  0  0  0  0  0  0  0
    5.0689  -11.3414   21.3384 N   0  0  0  0  0  0  0  0  0  0  0  0
    4.8984  -12.4376   20.6161 C   0  0  0  0  0  0  0  0  0  0  0  0
    5.8532  -12.7943   19.4057 C   0  0  0  0  0  0  0  0  0  0  0  0
    7.3530  -12.5813   19.5648 C   0  0  0  0  0  0  0  0  0  0  0  0
    6.5734  -11.6950   18.6538 C   0  0  0  0  0  0  0  0  0  0  0  0
    3.6961  -13.0635   21.1439 N   0  0  0  0  0  0  0  0  0  0  0  0
   -0.6806  -14.1116   24.6770 N   0  0  0  0  0  0  0  0  0  0  0  0
   -2.1956  -14.9484   25.0435 C   0  0  0  0  0  0  0  0  0  0  0  0
   -2.8000  -15.7095   26.6949 C   0  0  0  0  0  0  0  0  0  0  0  0
   -2.8598  -17.2629   27.2232 C   0  0  0  0  0  0  0  0  0  0  0  0
   -4.1846  -17.9565   26.8007 C   0  0  0  0  0  0  0  0  0  0  0  0
   -4.0077  -19.4588   26.9865 C   0  0  0  0  0  0  0  0  0  0  0  0
   -3.0127  -19.7009   28.1455 C   0  0  0  0  0  0  0  0  0  0  0  0
   -2.9908  -18.6838   29.3137 C   0  0  0  0  0  0  0  0  0  0  0  0
   -2.9824  -17.2440   28.7801 C   0  0  0  0  0  0  0  0  0  0  0  0
   -1.7382  -19.5393   27.5393 O   0  0  0  0  0  0  0  0  0  0  0  0
   -1.6264  -18.2146   27.0128 C   0  0  0  0  0  0  0  0  0  0  0  0
    1.8521  -12.1830   24.3274 H   0  0  0  0  0  0  0  0  0  0  0  0
    2.8631  -13.7013   24.2456 H   0  0  0  0  0  0  0  0  0  0  0  0
    3.5465  -10.6232   22.7911 H   0  0  0  0  0  0  0  0  0  0  0  0
    5.5175  -13.6362   18.8121 H   0  0  0  0  0  0  0  0  0  0  0  0
    7.7109  -12.1510   20.4923 H   0  0  0  0  0  0  0  0  0  0  0  0
    8.0140  -13.3130   19.1188 H   0  0  0  0  0  0  0  0  0  0  0  0
    6.6894  -11.8150   17.5837 H   0  0  0  0  0  0  0  0  0  0  0  0
    6.4250  -10.6673   18.9638 H   0  0  0  0  0  0  0  0  0  0  0  0
    3.2906  -13.8890   20.7490 H   0  0  0  0  0  0  0  0  0  0  0  0
   -0.2219  -13.5477   25.4106 H   0  0  0  0  0  0  0  0  0  0  0  0
   -2.7248  -15.3802   24.2084 H   0  0  0  0  0  0  0  0  0  0  0  0
   -2.5084  -13.9706   25.4396 H   0  0  0  0  0  0  0  0  0  0  0  0
   -3.8263  -15.4326   26.8534 H   0  0  0  0  0  0  0  0  0  0  0  0
   -2.2497  -15.1381   27.4554 H   0  0  0  0  0  0  0  0  0  0  0  0
   -5.0079  -17.5977   27.4295 H   0  0  0  0  0  0  0  0  0  0  0  0
   -4.5155  -17.6938   25.7982 H   0  0  0  0  0  0  0  0  0  0  0  0
   -3.5841  -19.8685   26.0615 H   0  0  0  0  0  0  0  0  0  0  0  0
   -4.9577  -19.9717   27.0929 H   0  0  0  0  0  0  0  0  0  0  0  0
   -3.0717  -20.7307   28.5109 H   0  0  0  0  0  0  0  0  0  0  0  0
   -2.0591  -18.8342   29.8781 H   0  0  0  0  0  0  0  0  0  0  0  0
   -3.7765  -18.7826   30.0624 H   0  0  0  0  0  0  0  0  0  0  0  0
   -2.1396  -16.6985   29.2242 H   0  0  0  0  0  0  0  0  0  0  0  0
   -3.8881  -16.7145   29.1021 H   0  0  0  0  0  0  0  0  0  0  0  0
   -0.7223  -17.8297   27.4813 H   0  0  0  0  0  0  0  0  0  0  0  0
   -1.4675  -18.3862   25.9715 H   0  0  0  0  0  0  0  0  0  0  0  0
  1  2  2  0
  2  3  1  0
  3  4  1  0
  4  5  2  0
  5  6  1  0
  6  7  2  0
  7  8  1  0
  8  9  1  0
  9 10  1  0
  7 11  1  0
  2 12  1  0
 12 13  1  0
 13 14  1  0
 14 15  1  0
 15 16  1  0
 16 17  1  0
 17 18  1  0
 18 19  1  0
 19 20  1  0
 18 21  1  0
 21 22  1  0
 11  4  1  0
 20 15  1  0
 10  8  1  0
 22 15  1  0
  3 23  1  0
  3 24  1  0
  5 25  1  0
  8 26  1  0
  9 27  1  0
  9 28  1  0
 10 29  1  0
 10 30  1  0
 11 31  1  0
 12 32  1  0
 13 33  1  0
 13 34  1  0
 14 35  1  0
 14 36  1  0
 16 37  1  0
 16 38  1  0
 17 39  1  0
 17 40  1  0
 18 41  1  0
 19 42  1  0
 19 43  1  0
 20 44  1  0
 20 45  1  0
 22 46  1  0
 22 47  1  0
M  END
>  <Energy>  (278) 
344.1004639015722

>  <compound_id>  (278) 
68664

>  <target_id>  (278) 
1

>  <reference_id>  (278) 
98

>  <inspiration_ids>  (278) 
[101, 98]

>  <energy_score>  (278) 
271.6756119957087

>  <distance_score>  (278) 
14.07474643195179

>  <path>  (278) 
/opt/xchem-fragalysis-2/maxwin/BulkDock/SCRATCH/511024/C68664-P98/C68664-P98.minimised.mol

>  <scratch_subdir>  (278) 
/opt/xchem-fragalysis-2/maxwin/BulkDock/SCRATCH/511024/C68664-P98

>  <fragmenstein_runtime>  (278) 
21.266099452972412

>  <fragmenstein_outcome>  (278) 
too moved

>  <fragmenstein_mode>  (278) 
expansion

>  <fragmenstein_error>  (278) 


$$$$
C68665-P101
     RDKit          3D

 40 42  0  0  0  0  0  0  0  0999 V2000
    4.5850  -15.0585   24.7196 O   0  0  0  0  0  0  0  0  0  0  0  0
    4.6998  -14.5339   25.8077 C   0  0  0  0  0  0  0  0  0  0  0  0
    3.7493  -15.2583   27.2078 C   0  0  0  0  0  0  0  0  0  0  0  0
    2.8768  -16.9252   27.5076 C   0  0  0  0  0  0  0  0  0  0  0  0
    2.6872  -18.1853   26.8667 C   0  0  0  0  0  0  0  0  0  0  0  0
    1.8011  -19.0444   27.4960 N   0  0  0  0  0  0  0  0  0  0  0  0
    1.2186  -18.2980   28.3832 C   0  0  0  0  0  0  0  0  0  0  0  0
    0.0598  -18.7623   29.2959 C   0  0  0  0  0  0  0  0  0  0  0  0
    0.1359  -18.5079   30.7787 C   0  0  0  0  0  0  0  0  0  0  0  0
    0.3095  -19.9014   30.2480 C   0  0  0  0  0  0  0  0  0  0  0  0
    1.6949  -17.0211   28.2991 N   0  0  0  0  0  0  0  0  0  0  0  0
    5.7268  -13.2569   26.3027 N   0  0  0  0  0  0  0  0  0  0  0  0
    6.9608  -12.4332   25.4624 C   0  0  0  0  0  0  0  0  0  0  0  0
    7.0601  -11.1192   24.4605 C   0  0  0  0  0  0  0  0  0  0  0  0
    8.3120  -10.8284   23.6593 N   0  0  0  0  0  0  0  0  0  0  0  0
    8.5158  -11.3220   22.3062 C   0  0  0  0  0  0  0  0  0  0  0  0
    9.3272  -10.2558   21.5865 C   0  0  0  0  0  0  0  0  0  0  0  0
   10.1563   -9.6813   22.7091 C   0  0  0  0  0  0  0  0  0  0  0  0
    9.1722   -9.7302   23.8574 C   0  0  0  0  0  0  0  0  0  0  0  0
    9.1640   -8.9230   24.7704 O   0  0  0  0  0  0  0  0  0  0  0  0
    4.2881  -15.2598   28.0998 H   0  0  0  0  0  0  0  0  0  0  0  0
    2.9805  -14.4798   27.3154 H   0  0  0  0  0  0  0  0  0  0  0  0
    3.0834  -18.5138   25.9062 H   0  0  0  0  0  0  0  0  0  0  0  0
   -0.9161  -18.7313   28.8231 H   0  0  0  0  0  0  0  0  0  0  0  0
   -0.7864  -18.2818   31.3014 H   0  0  0  0  0  0  0  0  0  0  0  0
    1.0135  -18.0246   31.1902 H   0  0  0  0  0  0  0  0  0  0  0  0
   -0.4929  -20.6145   30.3965 H   0  0  0  0  0  0  0  0  0  0  0  0
    1.3002  -20.3429   30.2612 H   0  0  0  0  0  0  0  0  0  0  0  0
    1.2478  -16.2579   28.7701 H   0  0  0  0  0  0  0  0  0  0  0  0
    5.5168  -12.9982   27.2639 H   0  0  0  0  0  0  0  0  0  0  0  0
    7.3834  -11.9732   26.3728 H   0  0  0  0  0  0  0  0  0  0  0  0
    7.7911  -13.1092   25.2390 H   0  0  0  0  0  0  0  0  0  0  0  0
    6.9520  -10.2396   25.1053 H   0  0  0  0  0  0  0  0  0  0  0  0
    6.2524  -11.1042   23.7373 H   0  0  0  0  0  0  0  0  0  0  0  0
    9.0860  -12.2531   22.3737 H   0  0  0  0  0  0  0  0  0  0  0  0
    7.5616  -11.4848   21.7999 H   0  0  0  0  0  0  0  0  0  0  0  0
    9.9271  -10.6590   20.7662 H   0  0  0  0  0  0  0  0  0  0  0  0
    8.6586   -9.4876   21.1792 H   0  0  0  0  0  0  0  0  0  0  0  0
   11.0193  -10.3090   22.9523 H   0  0  0  0  0  0  0  0  0  0  0  0
   10.4857   -8.6664   22.4968 H   0  0  0  0  0  0  0  0  0  0  0  0
  1  2  2  0
  2  3  1  0
  3  4  1  0
  4  5  2  0
  5  6  1  0
  6  7  2  0
  7  8  1  0
  8  9  1  0
  9 10  1  0
  7 11  1  0
  2 12  1  0
 12 13  1  0
 13 14  1  0
 14 15  1  0
 15 16  1  0
 16 17  1  0
 17 18  1  0
 18 19  1  0
 19 20  2  0
 11  4  1  0
 19 15  1  0
 10  8  1  0
  3 21  1  0
  3 22  1  0
  5 23  1  0
  8 24  1  0
  9 25  1  0
  9 26  1  0
 10 27  1  0
 10 28  1  0
 11 29  1  0
 12 30  1  0
 13 31  1  0
 13 32  1  0
 14 33  1  0
 14 34  1  0
 16 35  1  0
 16 36  1  0
 17 37  1  0
 17 38  1  0
 18 39  1  0
 18 40  1  0
M  END
>  <Energy>  (279) 
185.97935627048028

>  <compound_id>  (279) 
68665

>  <target_id>  (279) 
1

>  <reference_id>  (279) 
101

>  <inspiration_ids>  (279) 
[101, 98]

>  <energy_score>  (279) 
149.20375266425475

>  <distance_score>  (279) 
13.640087234478738

>  <path>  (279) 
/opt/xchem-fragalysis-2/maxwin/BulkDock/SCRATCH/511024/C68665-P101/C68665-P101.minimised.mol

>  <scratch_subdir>  (279) 
/opt/xchem-fragalysis-2/maxwin/BulkDock/SCRATCH/511024/C68665-P101

>  <fragmenstein_runtime>  (279) 
25.418210744857788

>  <fragmenstein_outcome>  (279) 
too moved

>  <fragmenstein_mode>  (279) 
expansion

>  <fragmenstein_error>  (279) 


$$$$
C68665-P98
     RDKit          3D

 40 42  0  0  0  0  0  0  0  0999 V2000
    2.6552  -17.5725   26.0956 O   0  0  0  0  0  0  0  0  0  0  0  0
    3.1119  -17.8911   24.9884 C   0  0  0  0  0  0  0  0  0  0  0  0
    3.1132  -19.5539   24.8222 C   0  0  0  0  0  0  0  0  0  0  0  0
    1.7607  -20.2339   25.3142 C   0  0  0  0  0  0  0  0  0  0  0  0
    1.4486  -21.1112   26.3435 C   0  0  0  0  0  0  0  0  0  0  0  0
    0.1209  -21.5008   26.3275 N   0  0  0  0  0  0  0  0  0  0  0  0
   -0.3965  -20.8791   25.2943 C   0  0  0  0  0  0  0  0  0  0  0  0
   -1.8803  -20.9851   24.8479 C   0  0  0  0  0  0  0  0  0  0  0  0
   -2.8899  -21.6295   25.7617 C   0  0  0  0  0  0  0  0  0  0  0  0
   -2.9062  -20.1421   25.5602 C   0  0  0  0  0  0  0  0  0  0  0  0
    0.5503  -20.1257   24.6521 N   0  0  0  0  0  0  0  0  0  0  0  0
    3.5979  -16.8739   23.6048 N   0  0  0  0  0  0  0  0  0  0  0  0
    3.4479  -14.9529   23.3012 C   0  0  0  0  0  0  0  0  0  0  0  0
    3.3596  -13.6098   21.6542 C   0  0  0  0  0  0  0  0  0  0  0  0
    4.6600  -12.7294   20.6121 N   0  0  0  0  0  0  0  0  0  0  0  0
    4.9571  -13.1312   19.2003 C   0  0  0  0  0  0  0  0  0  0  0  0
    5.5179  -11.9237   18.4703 C   0  0  0  0  0  0  0  0  0  0  0  0
    6.3467  -11.2869   19.5368 C   0  0  0  0  0  0  0  0  0  0  0  0
    5.4552  -11.4654   20.7432 C   0  0  0  0  0  0  0  0  0  0  0  0
    5.4624  -10.6172   21.6298 O   0  0  0  0  0  0  0  0  0  0  0  0
    3.8890  -19.9783   25.4667 H   0  0  0  0  0  0  0  0  0  0  0  0
    3.2467  -19.8742   23.7848 H   0  0  0  0  0  0  0  0  0  0  0  0
    2.1236  -21.4948   27.0966 H   0  0  0  0  0  0  0  0  0  0  0  0
   -2.0136  -21.1439   23.7831 H   0  0  0  0  0  0  0  0  0  0  0  0
   -3.6745  -22.2204   25.3049 H   0  0  0  0  0  0  0  0  0  0  0  0
   -2.5414  -22.0120   26.7148 H   0  0  0  0  0  0  0  0  0  0  0  0
   -3.7054  -19.7162   24.9671 H   0  0  0  0  0  0  0  0  0  0  0  0
   -2.5767  -19.5225   26.3866 H   0  0  0  0  0  0  0  0  0  0  0  0
    0.4004  -19.5502   23.8298 H   0  0  0  0  0  0  0  0  0  0  0  0
    3.9888  -17.4211   22.9265 H   0  0  0  0  0  0  0  0  0  0  0  0
    3.8853  -14.5553   24.2209 H   0  0  0  0  0  0  0  0  0  0  0  0
    2.4135  -14.7667   23.4172 H   0  0  0  0  0  0  0  0  0  0  0  0
    2.7248  -14.0141   20.8706 H   0  0  0  0  0  0  0  0  0  0  0  0
    3.1661  -12.7207   22.2837 H   0  0  0  0  0  0  0  0  0  0  0  0
    4.0741  -13.4853   18.6658 H   0  0  0  0  0  0  0  0  0  0  0  0
    5.7181  -13.9157   19.1945 H   0  0  0  0  0  0  0  0  0  0  0  0
    6.0933  -12.1975   17.5818 H   0  0  0  0  0  0  0  0  0  0  0  0
    4.7038  -11.2561   18.1627 H   0  0  0  0  0  0  0  0  0  0  0  0
    7.2943  -11.8060   19.7101 H   0  0  0  0  0  0  0  0  0  0  0  0
    6.5289  -10.2288   19.3330 H   0  0  0  0  0  0  0  0  0  0  0  0
  1  2  2  0
  2  3  1  0
  3  4  1  0
  4  5  2  0
  5  6  1  0
  6  7  2  0
  7  8  1  0
  8  9  1  0
  9 10  1  0
  7 11  1  0
  2 12  1  0
 12 13  1  0
 13 14  1  0
 14 15  1  0
 15 16  1  0
 16 17  1  0
 17 18  1  0
 18 19  1  0
 19 20  2  0
 11  4  1  0
 19 15  1  0
 10  8  1  0
  3 21  1  0
  3 22  1  0
  5 23  1  0
  8 24  1  0
  9 25  1  0
  9 26  1  0
 10 27  1  0
 10 28  1  0
 11 29  1  0
 12 30  1  0
 13 31  1  0
 13 32  1  0
 14 33  1  0
 14 34  1  0
 16 35  1  0
 16 36  1  0
 17 37  1  0
 17 38  1  0
 18 39  1  0
 18 40  1  0
M  END
>  <Energy>  (280) 
321.8591514639308

>  <compound_id>  (280) 
68665

>  <target_id>  (280) 
1

>  <reference_id>  (280) 
98

>  <inspiration_ids>  (280) 
[101, 98]

>  <energy_score>  (280) 
285.0835478577086

>  <distance_score>  (280) 
13.685501434990638

>  <path>  (280) 
/opt/xchem-fragalysis-2/maxwin/BulkDock/SCRATCH/511024/C68665-P98/C68665-P98.minimised.mol

>  <scratch_subdir>  (280) 
/opt/xchem-fragalysis-2/maxwin/BulkDock/SCRATCH/511024/C68665-P98

>  <fragmenstein_runtime>  (280) 
17.211068391799927

>  <fragmenstein_outcome>  (280) 
too moved

>  <fragmenstein_mode>  (280) 
expansion

>  <fragmenstein_error>  (280) 


$$$$
C68666-P101
     RDKit          3D

 36 37  0  0  0  0  0  0  0  0999 V2000
    4.8360  -13.3586   31.3014 C   0  0  0  0  0  0  0  0  0  0  0  0
    3.9766  -12.3944   30.6654 N   0  0  0  0  0  0  0  0  0  0  0  0
    2.6823  -12.2087   31.0713 C   0  0  0  0  0  0  0  0  0  0  0  0
    2.1232  -11.2087   30.4407 N   0  0  0  0  0  0  0  0  0  0  0  0
    3.1223  -10.6874   29.6558 C   0  0  0  0  0  0  0  0  0  0  0  0
    4.3054  -11.4191   29.7262 C   0  0  0  0  0  0  0  0  0  0  0  0
    5.6892  -11.2894   29.0143 C   0  0  0  0  0  0  0  0  0  0  0  0
    6.0142   -9.9851   28.1612 C   0  0  0  0  0  0  0  0  0  0  0  0
    5.2883   -9.0353   28.2631 O   0  0  0  0  0  0  0  0  0  0  0  0
    7.2709  -10.1591   27.3947 N   0  0  0  0  0  0  0  0  0  0  0  0
    8.0764   -9.1769   26.5921 C   0  0  0  0  0  0  0  0  0  0  0  0
    8.7850   -9.6761   25.2690 C   0  0  0  0  0  0  0  0  0  0  0  0
    9.9045   -8.8749   24.7048 N   0  0  0  0  0  0  0  0  0  0  0  0
   11.0541   -8.5108   25.5045 C   0  0  0  0  0  0  0  0  0  0  0  0
   12.0570   -7.9346   24.5190 C   0  0  0  0  0  0  0  0  0  0  0  0
   11.7919   -8.7282   23.2561 C   0  0  0  0  0  0  0  0  0  0  0  0
   10.3235   -9.0730   23.3706 C   0  0  0  0  0  0  0  0  0  0  0  0
    9.6531   -9.5012   22.4462 O   0  0  0  0  0  0  0  0  0  0  0  0
    4.5853  -14.3423   30.9021 H   0  0  0  0  0  0  0  0  0  0  0  0
    5.8803  -13.1014   31.1278 H   0  0  0  0  0  0  0  0  0  0  0  0
    4.6493  -13.3413   32.3794 H   0  0  0  0  0  0  0  0  0  0  0  0
    2.2074  -12.8249   31.8246 H   0  0  0  0  0  0  0  0  0  0  0  0
    2.9371   -9.7905   29.0800 H   0  0  0  0  0  0  0  0  0  0  0  0
    5.7831  -12.1424   28.3351 H   0  0  0  0  0  0  0  0  0  0  0  0
    6.4735  -11.3551   29.7772 H   0  0  0  0  0  0  0  0  0  0  0  0
    7.6653  -11.0693   27.6046 H   0  0  0  0  0  0  0  0  0  0  0  0
    7.4250   -8.3270   26.3619 H   0  0  0  0  0  0  0  0  0  0  0  0
    8.8391   -8.8147   27.2892 H   0  0  0  0  0  0  0  0  0  0  0  0
    8.0234   -9.7974   24.4896 H   0  0  0  0  0  0  0  0  0  0  0  0
    9.1942  -10.6776   25.4523 H   0  0  0  0  0  0  0  0  0  0  0  0
   10.7686   -7.7912   26.2761 H   0  0  0  0  0  0  0  0  0  0  0  0
   11.4504   -9.4181   25.9743 H   0  0  0  0  0  0  0  0  0  0  0  0
   13.0887   -8.0310   24.8697 H   0  0  0  0  0  0  0  0  0  0  0  0
   11.8646   -6.8697   24.3557 H   0  0  0  0  0  0  0  0  0  0  0  0
   12.3635   -9.6621   23.2486 H   0  0  0  0  0  0  0  0  0  0  0  0
   12.0107   -8.1611   22.3506 H   0  0  0  0  0  0  0  0  0  0  0  0
  1  2  1  0
  2  3  1  0
  3  4  2  0
  4  5  1  0
  5  6  2  0
  6  7  1  0
  7  8  1  0
  8  9  2  0
  8 10  1  0
 10 11  1  0
 11 12  1  0
 12 13  1  0
 13 14  1  0
 14 15  1  0
 15 16  1  0
 16 17  1  0
 17 18  2  0
  6  2  1  0
 17 13  1  0
  1 19  1  0
  1 20  1  0
  1 21  1  0
  3 22  1  0
  5 23  1  0
  7 24  1  0
  7 25  1  0
 10 26  1  0
 11 27  1  0
 11 28  1  0
 12 29  1  0
 12 30  1  0
 14 31  1  0
 14 32  1  0
 15 33  1  0
 15 34  1  0
 16 35  1  0
 16 36  1  0
M  END
>  <Energy>  (281) 
28.845057424318298

>  <compound_id>  (281) 
68666

>  <target_id>  (281) 
1

>  <reference_id>  (281) 
101

>  <inspiration_ids>  (281) 
[101, 98]

>  <energy_score>  (281) 
1.7584952976904447

>  <distance_score>  (281) 
15.682952899662181

>  <path>  (281) 
/opt/xchem-fragalysis-2/maxwin/BulkDock/SCRATCH/511024/C68666-P101/C68666-P101.minimised.mol

>  <scratch_subdir>  (281) 
/opt/xchem-fragalysis-2/maxwin/BulkDock/SCRATCH/511024/C68666-P101

>  <fragmenstein_runtime>  (281) 
17.440261840820312

>  <fragmenstein_outcome>  (281) 
too moved

>  <fragmenstein_mode>  (281) 
expansion

>  <fragmenstein_error>  (281) 


$$$$
C68666-P98
     RDKit          3D

 36 37  0  0  0  0  0  0  0  0999 V2000
    3.1336  -20.5173   23.2233 C   0  0  0  0  0  0  0  0  0  0  0  0
    2.6751  -19.8686   24.4358 N   0  0  0  0  0  0  0  0  0  0  0  0
    1.9450  -20.5746   25.3673 C   0  0  0  0  0  0  0  0  0  0  0  0
    1.7899  -19.8990   26.4718 N   0  0  0  0  0  0  0  0  0  0  0  0
    2.3820  -18.6881   26.2054 C   0  0  0  0  0  0  0  0  0  0  0  0
    2.7554  -18.4992   24.8464 C   0  0  0  0  0  0  0  0  0  0  0  0
    3.4508  -17.0305   23.8551 C   0  0  0  0  0  0  0  0  0  0  0  0
    2.5770  -15.2289   23.3153 C   0  0  0  0  0  0  0  0  0  0  0  0
    1.5103  -14.8137   23.5190 O   0  0  0  0  0  0  0  0  0  0  0  0
    3.4708  -14.7929   22.6459 N   0  0  0  0  0  0  0  0  0  0  0  0
    3.5835  -13.2633   21.4510 C   0  0  0  0  0  0  0  0  0  0  0  0
    5.0861  -12.9140   20.3075 C   0  0  0  0  0  0  0  0  0  0  0  0
    6.4634  -12.2152   20.5102 N   0  0  0  0  0  0  0  0  0  0  0  0
    6.6406  -10.8118   20.7561 C   0  0  0  0  0  0  0  0  0  0  0  0
    8.1337  -10.5658   20.7886 C   0  0  0  0  0  0  0  0  0  0  0  0
    8.6037  -11.4519   19.6695 C   0  0  0  0  0  0  0  0  0  0  0  0
    7.5826  -12.5702   19.6885 C   0  0  0  0  0  0  0  0  0  0  0  0
    7.7546  -13.6016   19.0612 O   0  0  0  0  0  0  0  0  0  0  0  0
    3.5079  -19.8079   22.4933 H   0  0  0  0  0  0  0  0  0  0  0  0
    3.9325  -21.2107   23.5007 H   0  0  0  0  0  0  0  0  0  0  0  0
    2.2980  -21.0735   22.7877 H   0  0  0  0  0  0  0  0  0  0  0  0
    1.6113  -21.5879   25.1897 H   0  0  0  0  0  0  0  0  0  0  0  0
    2.4150  -17.9425   26.9936 H   0  0  0  0  0  0  0  0  0  0  0  0
    4.4590  -16.5867   23.9175 H   0  0  0  0  0  0  0  0  0  0  0  0
    3.8441  -17.1406   24.8673 H   0  0  0  0  0  0  0  0  0  0  0  0
    4.2792  -15.3842   22.7827 H   0  0  0  0  0  0  0  0  0  0  0  0
    3.3843  -12.4342   22.1354 H   0  0  0  0  0  0  0  0  0  0  0  0
    2.8922  -13.6526   20.7554 H   0  0  0  0  0  0  0  0  0  0  0  0
    4.6600  -12.4830   19.4174 H   0  0  0  0  0  0  0  0  0  0  0  0
    5.4102  -13.8157   19.8015 H   0  0  0  0  0  0  0  0  0  0  0  0
    6.2537  -10.2902   19.8790 H   0  0  0  0  0  0  0  0  0  0  0  0
    6.1758  -10.5281   21.6995 H   0  0  0  0  0  0  0  0  0  0  0  0
    8.3986   -9.5208   20.6267 H   0  0  0  0  0  0  0  0  0  0  0  0
    8.5573  -10.8964   21.7442 H   0  0  0  0  0  0  0  0  0  0  0  0
    8.5541  -10.9495   18.6987 H   0  0  0  0  0  0  0  0  0  0  0  0
    9.6110  -11.8359   19.8467 H   0  0  0  0  0  0  0  0  0  0  0  0
  1  2  1  0
  2  3  1  0
  3  4  2  0
  4  5  1  0
  5  6  2  0
  6  7  1  0
  7  8  1  0
  8  9  2  0
  8 10  1  0
 10 11  1  0
 11 12  1  0
 12 13  1  0
 13 14  1  0
 14 15  1  0
 15 16  1  0
 16 17  1  0
 17 18  2  0
  6  2  1  0
 17 13  1  0
  1 19  1  0
  1 20  1  0
  1 21  1  0
  3 22  1  0
  5 23  1  0
  7 24  1  0
  7 25  1  0
 10 26  1  0
 11 27  1  0
 11 28  1  0
 12 29  1  0
 12 30  1  0
 14 31  1  0
 14 32  1  0
 15 33  1  0
 15 34  1  0
 16 35  1  0
 16 36  1  0
M  END
>  <Energy>  (282) 
341.50866980017912

>  <compound_id>  (282) 
68666

>  <target_id>  (282) 
1

>  <reference_id>  (282) 
98

>  <inspiration_ids>  (282) 
[101, 98]

>  <energy_score>  (282) 
314.4221076735499

>  <distance_score>  (282) 
13.735739205361867

>  <path>  (282) 
/opt/xchem-fragalysis-2/maxwin/BulkDock/SCRATCH/511024/C68666-P98/C68666-P98.minimised.mol

>  <scratch_subdir>  (282) 
/opt/xchem-fragalysis-2/maxwin/BulkDock/SCRATCH/511024/C68666-P98

>  <fragmenstein_runtime>  (282) 
16.422425985336304

>  <fragmenstein_outcome>  (282) 
too moved

>  <fragmenstein_mode>  (282) 
expansion

>  <fragmenstein_error>  (282) 


$$$$
C68667-P101
     RDKit          3D

 44 45  0  0  0  0  0  0  0  0999 V2000
   -4.4644  -15.1506   18.8255 C   0  0  0  0  0  0  0  0  0  0  0  0
   -3.2646  -15.8860   19.2795 C   0  0  0  0  0  0  0  0  0  0  0  0
   -2.0168  -15.4626   19.2445 N   0  0  0  0  0  0  0  0  0  0  0  0
   -1.1927  -16.4565   19.7944 C   0  0  0  0  0  0  0  0  0  0  0  0
    0.6870  -16.3007   19.8686 C   0  0  0  0  0  0  0  0  0  0  0  0
    2.0633  -15.2686   18.6991 C   0  0  0  0  0  0  0  0  0  0  0  0
    2.2135  -15.4305   17.5345 O   0  0  0  0  0  0  0  0  0  0  0  0
    2.7530  -14.4079   19.6094 N   0  0  0  0  0  0  0  0  0  0  0  0
    4.2192  -13.1836   19.3488 C   0  0  0  0  0  0  0  0  0  0  0  0
    4.1481  -13.0667   20.8819 C   0  0  0  0  0  0  0  0  0  0  0  0
    5.6835  -12.0669   20.0211 C   0  0  0  0  0  0  0  0  0  0  0  0
    6.5581  -11.1499   19.2442 N   0  0  0  0  0  0  0  0  0  0  0  0
    8.1516  -11.0515   19.1761 C   0  0  0  0  0  0  0  0  0  0  0  0
    9.0003  -11.6365   19.8058 O   0  0  0  0  0  0  0  0  0  0  0  0
    8.6699  -10.2292   18.1348 C   0  0  0  0  0  0  0  0  0  0  0  0
    9.9884  -10.9119   17.6116 N   0  0  0  0  0  0  0  0  0  0  0  0
   11.0390  -11.4583   18.4661 C   0  0  0  0  0  0  0  0  0  0  0  0
   12.4103  -11.9717   17.4453 S   0  0  0  0  0  0  0  0  0  0  0  0
   11.4818  -11.8056   15.9183 C   0  0  0  0  0  0  0  0  0  0  0  0
   10.1521  -11.1909   16.2713 C   0  0  0  0  0  0  0  0  0  0  0  0
    9.2818  -10.9768   15.4448 O   0  0  0  0  0  0  0  0  0  0  0  0
   -2.0500  -17.4968   20.1420 C   0  0  0  0  0  0  0  0  0  0  0  0
   -3.3281  -17.1427   19.7967 N   0  0  0  0  0  0  0  0  0  0  0  0
   -4.1911  -14.1555   18.4611 H   0  0  0  0  0  0  0  0  0  0  0  0
   -5.1760  -15.0280   19.6478 H   0  0  0  0  0  0  0  0  0  0  0  0
   -4.9607  -15.6872   18.0110 H   0  0  0  0  0  0  0  0  0  0  0  0
    0.7385  -17.2601   19.3756 H   0  0  0  0  0  0  0  0  0  0  0  0
    0.7022  -16.1873   20.9120 H   0  0  0  0  0  0  0  0  0  0  0  0
    2.4219  -14.5874   20.5442 H   0  0  0  0  0  0  0  0  0  0  0  0
    4.8567  -13.9358   18.8939 H   0  0  0  0  0  0  0  0  0  0  0  0
    4.1112  -12.1788   21.5046 H   0  0  0  0  0  0  0  0  0  0  0  0
    5.0667  -13.5882   21.0527 H   0  0  0  0  0  0  0  0  0  0  0  0
    3.4242  -13.5984   21.4436 H   0  0  0  0  0  0  0  0  0  0  0  0
    6.4205  -12.7589   20.4276 H   0  0  0  0  0  0  0  0  0  0  0  0
    5.5061  -11.4590   20.8952 H   0  0  0  0  0  0  0  0  0  0  0  0
    6.1478  -10.5737   18.5087 H   0  0  0  0  0  0  0  0  0  0  0  0
    7.9719  -10.3019   17.3061 H   0  0  0  0  0  0  0  0  0  0  0  0
    8.7013   -9.3225   18.6888 H   0  0  0  0  0  0  0  0  0  0  0  0
   11.3371  -10.7349   19.2284 H   0  0  0  0  0  0  0  0  0  0  0  0
   10.7428  -12.3939   18.9382 H   0  0  0  0  0  0  0  0  0  0  0  0
   11.3144  -12.7925   15.4791 H   0  0  0  0  0  0  0  0  0  0  0  0
   12.0155  -11.1715   15.2120 H   0  0  0  0  0  0  0  0  0  0  0  0
   -1.9276  -18.4100   20.6843 H   0  0  0  0  0  0  0  0  0  0  0  0
   -4.1637  -17.6865   19.9535 H   0  0  0  0  0  0  0  0  0  0  0  0
  1  2  1  0
  2  3  2  0
  3  4  1  0
  4  5  1  0
  5  6  1  0
  6  7  2  0
  6  8  1  0
  8  9  1  0
  9 10  1  0
  9 11  1  0
 11 12  1  0
 12 13  1  0
 13 14  2  0
 13 15  1  0
 15 16  1  0
 16 17  1  0
 17 18  1  0
 18 19  1  0
 19 20  1  0
 20 21  2  0
  4 22  2  0
 22 23  1  0
 23  2  1  0
 20 16  1  0
  1 24  1  0
  1 25  1  0
  1 26  1  0
  5 27  1  0
  5 28  1  0
  8 29  1  0
  9 30  1  0
 10 31  1  0
 10 32  1  0
 10 33  1  0
 11 34  1  0
 11 35  1  0
 12 36  1  0
 15 37  1  0
 15 38  1  0
 17 39  1  0
 17 40  1  0
 19 41  1  0
 19 42  1  0
 22 43  1  0
 23 44  1  0
M  END
>  <Energy>  (283) 
434.42280774743341

>  <compound_id>  (283) 
68667

>  <target_id>  (283) 
1

>  <reference_id>  (283) 
101

>  <inspiration_ids>  (283) 
[101, 98]

>  <energy_score>  (283) 
380.9689637356378

>  <distance_score>  (283) 
12.9592374241214

>  <path>  (283) 
/opt/xchem-fragalysis-2/maxwin/BulkDock/SCRATCH/511024/C68667-P101/C68667-P101.minimised.mol

>  <scratch_subdir>  (283) 
/opt/xchem-fragalysis-2/maxwin/BulkDock/SCRATCH/511024/C68667-P101

>  <fragmenstein_runtime>  (283) 
44.66195201873779

>  <fragmenstein_outcome>  (283) 
too moved

>  <fragmenstein_mode>  (283) 
expansion

>  <fragmenstein_error>  (283) 


$$$$
C68667-P98
     RDKit          3D

 44 45  0  0  0  0  0  0  0  0999 V2000
    0.8685  -20.6095   16.4628 C   0  0  0  0  0  0  0  0  0  0  0  0
    1.0779  -19.2415   15.9418 C   0  0  0  0  0  0  0  0  0  0  0  0
    2.0441  -18.4070   16.2628 N   0  0  0  0  0  0  0  0  0  0  0  0
    1.8963  -17.2332   15.5327 C   0  0  0  0  0  0  0  0  0  0  0  0
    2.4924  -15.7962   15.9034 C   0  0  0  0  0  0  0  0  0  0  0  0
    3.9917  -15.2730   16.6435 C   0  0  0  0  0  0  0  0  0  0  0  0
    4.9606  -15.5302   15.9241 O   0  0  0  0  0  0  0  0  0  0  0  0
    3.8883  -14.3616   18.1983 N   0  0  0  0  0  0  0  0  0  0  0  0
    5.2078  -13.3777   19.1807 C   0  0  0  0  0  0  0  0  0  0  0  0
    4.5288  -12.8992   20.3969 C   0  0  0  0  0  0  0  0  0  0  0  0
    5.9183  -11.5552   18.8043 C   0  0  0  0  0  0  0  0  0  0  0  0
    7.0835  -10.4014   19.4468 N   0  0  0  0  0  0  0  0  0  0  0  0
    8.5201   -9.7172   18.7909 C   0  0  0  0  0  0  0  0  0  0  0  0
    8.9310  -10.0883   17.7389 O   0  0  0  0  0  0  0  0  0  0  0  0
    9.5889   -8.0712   19.6503 C   0  0  0  0  0  0  0  0  0  0  0  0
   10.0882   -6.0147   19.3048 N   0  0  0  0  0  0  0  0  0  0  0  0
   11.6063   -5.6118   20.2509 C   0  0  0  0  0  0  0  0  0  0  0  0
   13.2363   -5.1515   19.7307 S   0  0  0  0  0  0  0  0  0  0  0  0
   12.6223   -4.7085   18.2103 C   0  0  0  0  0  0  0  0  0  0  0  0
   11.0857   -5.1455   17.9430 C   0  0  0  0  0  0  0  0  0  0  0  0
   10.9100   -4.6122   16.8298 O   0  0  0  0  0  0  0  0  0  0  0  0
    0.7840  -17.4284   14.7105 C   0  0  0  0  0  0  0  0  0  0  0  0
    0.2630  -18.6661   15.0095 N   0  0  0  0  0  0  0  0  0  0  0  0
    1.5122  -20.7952   17.3279 H   0  0  0  0  0  0  0  0  0  0  0  0
    1.1123  -21.3496   15.6944 H   0  0  0  0  0  0  0  0  0  0  0  0
   -0.1719  -20.7578   16.7668 H   0  0  0  0  0  0  0  0  0  0  0  0
    1.7119  -15.1808   16.3368 H   0  0  0  0  0  0  0  0  0  0  0  0
    2.6175  -15.3659   14.8919 H   0  0  0  0  0  0  0  0  0  0  0  0
    2.9431  -14.4084   18.5783 H   0  0  0  0  0  0  0  0  0  0  0  0
    5.9141  -14.0261   19.5538 H   0  0  0  0  0  0  0  0  0  0  0  0
    5.1077  -12.1911   20.9427 H   0  0  0  0  0  0  0  0  0  0  0  0
    3.8844  -12.4433   19.7435 H   0  0  0  0  0  0  0  0  0  0  0  0
    3.7552  -13.2954   21.0381 H   0  0  0  0  0  0  0  0  0  0  0  0
    5.5063  -11.1993   19.6930 H   0  0  0  0  0  0  0  0  0  0  0  0
    5.5749  -11.0745   17.8764 H   0  0  0  0  0  0  0  0  0  0  0  0
    6.9563  -10.0507   20.3148 H   0  0  0  0  0  0  0  0  0  0  0  0
    9.7972   -8.2778   20.6995 H   0  0  0  0  0  0  0  0  0  0  0  0
   10.5186   -8.6839   19.6864 H   0  0  0  0  0  0  0  0  0  0  0  0
   11.9880   -6.5660   20.6520 H   0  0  0  0  0  0  0  0  0  0  0  0
   11.4569   -4.7780   20.9225 H   0  0  0  0  0  0  0  0  0  0  0  0
   13.2420   -5.1316   17.4108 H   0  0  0  0  0  0  0  0  0  0  0  0
   12.7044   -3.6214   18.0909 H   0  0  0  0  0  0  0  0  0  0  0  0
    0.2698  -16.7566   14.0385 H   0  0  0  0  0  0  0  0  0  0  0  0
   -0.5640  -19.0832   14.6063 H   0  0  0  0  0  0  0  0  0  0  0  0
  1  2  1  0
  2  3  2  0
  3  4  1  0
  4  5  1  0
  5  6  1  0
  6  7  2  0
  6  8  1  0
  8  9  1  0
  9 10  1  0
  9 11  1  0
 11 12  1  0
 12 13  1  0
 13 14  2  0
 13 15  1  0
 15 16  1  0
 16 17  1  0
 17 18  1  0
 18 19  1  0
 19 20  1  0
 20 21  2  0
  4 22  2  0
 22 23  1  0
 23  2  1  0
 20 16  1  0
  1 24  1  0
  1 25  1  0
  1 26  1  0
  5 27  1  0
  5 28  1  0
  8 29  1  0
  9 30  1  0
 10 31  1  0
 10 32  1  0
 10 33  1  0
 11 34  1  0
 11 35  1  0
 12 36  1  0
 15 37  1  0
 15 38  1  0
 17 39  1  0
 17 40  1  0
 19 41  1  0
 19 42  1  0
 22 43  1  0
 23 44  1  0
M  END
>  <Energy>  (284) 
852.19654840904377

>  <compound_id>  (284) 
68667

>  <target_id>  (284) 
1

>  <reference_id>  (284) 
98

>  <inspiration_ids>  (284) 
[101, 98]

>  <energy_score>  (284) 
798.7427043972433

>  <distance_score>  (284) 
14.24418808578728

>  <path>  (284) 
/opt/xchem-fragalysis-2/maxwin/BulkDock/SCRATCH/511024/C68667-P98/C68667-P98.minimised.mol

>  <scratch_subdir>  (284) 
/opt/xchem-fragalysis-2/maxwin/BulkDock/SCRATCH/511024/C68667-P98

>  <fragmenstein_runtime>  (284) 
38.05317211151123

>  <fragmenstein_outcome>  (284) 
too moved

>  <fragmenstein_mode>  (284) 
expansion

>  <fragmenstein_error>  (284) 


$$$$
C68668-P101
     RDKit          3D

 44 45  0  0  0  0  0  0  0  0999 V2000
   -5.0811  -19.2504   22.6726 C   0  0  0  0  0  0  0  0  0  0  0  0
   -4.7289  -18.8134   24.0500 C   0  0  0  0  0  0  0  0  0  0  0  0
   -4.1799  -19.6673   24.9787 N   0  0  0  0  0  0  0  0  0  0  0  0
   -4.0594  -18.9786   26.1450 C   0  0  0  0  0  0  0  0  0  0  0  0
   -4.3878  -17.7181   25.9922 N   0  0  0  0  0  0  0  0  0  0  0  0
   -4.7612  -17.5728   24.6801 C   0  0  0  0  0  0  0  0  0  0  0  0
   -5.0886  -16.2356   24.0754 C   0  0  0  0  0  0  0  0  0  0  0  0
   -4.3147  -14.9815   24.5570 C   0  0  0  0  0  0  0  0  0  0  0  0
   -4.9694  -13.9825   24.7080 O   0  0  0  0  0  0  0  0  0  0  0  0
   -2.8867  -15.2131   24.7217 N   0  0  0  0  0  0  0  0  0  0  0  0
   -1.7385  -14.2666   25.2542 C   0  0  0  0  0  0  0  0  0  0  0  0
   -2.3860  -14.8724   26.8470 C   0  0  0  0  0  0  0  0  0  0  0  0
    0.2269  -14.1922   24.5230 C   0  0  0  0  0  0  0  0  0  0  0  0
    1.9237  -13.3229   25.0046 N   0  0  0  0  0  0  0  0  0  0  0  0
    3.6481  -13.9340   24.8779 C   0  0  0  0  0  0  0  0  0  0  0  0
    3.9777  -14.9795   24.3518 O   0  0  0  0  0  0  0  0  0  0  0  0
    5.2295  -13.1072   25.7392 C   0  0  0  0  0  0  0  0  0  0  0  0
    6.7021  -12.4939   25.6487 N   0  0  0  0  0  0  0  0  0  0  0  0
    7.4588  -12.4592   26.8853 C   0  0  0  0  0  0  0  0  0  0  0  0
    8.8431  -11.3326   26.7962 S   0  0  0  0  0  0  0  0  0  0  0  0
    8.6134  -11.0667   25.0652 C   0  0  0  0  0  0  0  0  0  0  0  0
    7.2401  -11.5994   24.7230 C   0  0  0  0  0  0  0  0  0  0  0  0
    6.7172  -11.2680   23.6756 O   0  0  0  0  0  0  0  0  0  0  0  0
   -4.8262  -18.4811   21.9375 H   0  0  0  0  0  0  0  0  0  0  0  0
   -6.1544  -19.4481   22.5957 H   0  0  0  0  0  0  0  0  0  0  0  0
   -4.5445  -20.1646   22.3988 H   0  0  0  0  0  0  0  0  0  0  0  0
   -3.9674  -20.6456   24.8393 H   0  0  0  0  0  0  0  0  0  0  0  0
   -3.7048  -19.4316   27.0585 H   0  0  0  0  0  0  0  0  0  0  0  0
   -4.9662  -16.2736   22.9867 H   0  0  0  0  0  0  0  0  0  0  0  0
   -6.1536  -16.0509   24.2668 H   0  0  0  0  0  0  0  0  0  0  0  0
   -2.6979  -16.1843   24.5938 H   0  0  0  0  0  0  0  0  0  0  0  0
   -2.1189  -13.2463   25.3390 H   0  0  0  0  0  0  0  0  0  0  0  0
   -3.2507  -14.2388   27.1076 H   0  0  0  0  0  0  0  0  0  0  0  0
   -2.8175  -15.8832   26.8133 H   0  0  0  0  0  0  0  0  0  0  0  0
   -1.6859  -14.9040   27.6823 H   0  0  0  0  0  0  0  0  0  0  0  0
    0.4229  -13.7310   25.6122 H   0  0  0  0  0  0  0  0  0  0  0  0
    0.0301  -13.9285   23.4929 H   0  0  0  0  0  0  0  0  0  0  0  0
    1.9071  -12.4793   25.5534 H   0  0  0  0  0  0  0  0  0  0  0  0
    5.5513  -14.1271   25.7199 H   0  0  0  0  0  0  0  0  0  0  0  0
    5.1145  -13.1691   26.8460 H   0  0  0  0  0  0  0  0  0  0  0  0
    6.8072  -12.1239   27.6965 H   0  0  0  0  0  0  0  0  0  0  0  0
    7.8283  -13.4602   27.0888 H   0  0  0  0  0  0  0  0  0  0  0  0
    8.6694   -9.9979   24.8449 H   0  0  0  0  0  0  0  0  0  0  0  0
    9.3705  -11.6222   24.5066 H   0  0  0  0  0  0  0  0  0  0  0  0
  1  2  1  0
  2  3  1  0
  3  4  1  0
  4  5  2  0
  5  6  1  0
  6  7  1  0
  7  8  1  0
  8  9  2  0
  8 10  1  0
 10 11  1  0
 11 12  1  0
 11 13  1  0
 13 14  1  0
 14 15  1  0
 15 16  2  0
 15 17  1  0
 17 18  1  0
 18 19  1  0
 19 20  1  0
 20 21  1  0
 21 22  1  0
 22 23  2  0
  6  2  2  0
 22 18  1  0
  1 24  1  0
  1 25  1  0
  1 26  1  0
  3 27  1  0
  4 28  1  0
  7 29  1  0
  7 30  1  0
 10 31  1  0
 11 32  1  0
 12 33  1  0
 12 34  1  0
 12 35  1  0
 13 36  1  0
 13 37  1  0
 14 38  1  0
 17 39  1  0
 17 40  1  0
 19 41  1  0
 19 42  1  0
 21 43  1  0
 21 44  1  0
M  END
>  <Energy>  (285) 
476.4381490020329

>  <compound_id>  (285) 
68668

>  <target_id>  (285) 
1

>  <reference_id>  (285) 
101

>  <inspiration_ids>  (285) 
[101, 98]

>  <energy_score>  (285) 
411.7611262843643

>  <distance_score>  (285) 
13.171902290168466

>  <path>  (285) 
/opt/xchem-fragalysis-2/maxwin/BulkDock/SCRATCH/511024/C68668-P101/C68668-P101.minimised.mol

>  <scratch_subdir>  (285) 
/opt/xchem-fragalysis-2/maxwin/BulkDock/SCRATCH/511024/C68668-P101

>  <fragmenstein_runtime>  (285) 
27.950122117996216

>  <fragmenstein_outcome>  (285) 
too moved

>  <fragmenstein_mode>  (285) 
expansion

>  <fragmenstein_error>  (285) 


$$$$
C68668-P98
     RDKit          3D

 44 45  0  0  0  0  0  0  0  0999 V2000
   -3.2412  -19.0331   25.4770 C   0  0  0  0  0  0  0  0  0  0  0  0
   -2.0725  -18.5338   26.2847 C   0  0  0  0  0  0  0  0  0  0  0  0
   -2.3943  -18.1398   27.5588 N   0  0  0  0  0  0  0  0  0  0  0  0
   -1.2716  -17.7235   28.1612 C   0  0  0  0  0  0  0  0  0  0  0  0
   -0.2276  -17.8060   27.3473 N   0  0  0  0  0  0  0  0  0  0  0  0
   -0.5601  -18.4298   26.1152 C   0  0  0  0  0  0  0  0  0  0  0  0
    0.6515  -18.9339   24.5500 C   0  0  0  0  0  0  0  0  0  0  0  0
    2.6330  -18.7594   24.4504 C   0  0  0  0  0  0  0  0  0  0  0  0
    3.2319  -19.7455   24.9098 O   0  0  0  0  0  0  0  0  0  0  0  0
    3.3268  -17.1962   23.9169 N   0  0  0  0  0  0  0  0  0  0  0  0
    4.8500  -16.5946   24.0441 C   0  0  0  0  0  0  0  0  0  0  0  0
    3.6367  -17.3277   25.5065 C   0  0  0  0  0  0  0  0  0  0  0  0
    6.9106  -16.2757   23.5072 C   0  0  0  0  0  0  0  0  0  0  0  0
    8.1704  -14.6041   22.6512 N   0  0  0  0  0  0  0  0  0  0  0  0
    8.3705  -13.8902   20.6590 C   0  0  0  0  0  0  0  0  0  0  0  0
    7.7746  -14.5982   19.9495 O   0  0  0  0  0  0  0  0  0  0  0  0
    9.2018  -12.2127   19.4055 C   0  0  0  0  0  0  0  0  0  0  0  0
    9.5096  -10.6768   18.0113 N   0  0  0  0  0  0  0  0  0  0  0  0
   10.3843   -9.5922   16.4599 C   0  0  0  0  0  0  0  0  0  0  0  0
   10.9178   -6.8984   16.5529 S   0  0  0  0  0  0  0  0  0  0  0  0
    9.8453   -7.8314   19.0286 C   0  0  0  0  0  0  0  0  0  0  0  0
    8.6482   -9.4081   18.6040 C   0  0  0  0  0  0  0  0  0  0  0  0
    7.4302   -9.5234   18.7279 O   0  0  0  0  0  0  0  0  0  0  0  0
   -2.9855  -19.4590   24.5060 H   0  0  0  0  0  0  0  0  0  0  0  0
   -3.9549  -18.2178   25.3153 H   0  0  0  0  0  0  0  0  0  0  0  0
   -3.7635  -19.8205   26.0342 H   0  0  0  0  0  0  0  0  0  0  0  0
   -3.3241  -18.1114   27.9540 H   0  0  0  0  0  0  0  0  0  0  0  0
   -1.2405  -17.3308   29.1688 H   0  0  0  0  0  0  0  0  0  0  0  0
    0.0302  -19.0262   23.6158 H   0  0  0  0  0  0  0  0  0  0  0  0
    0.5759  -19.9173   24.2812 H   0  0  0  0  0  0  0  0  0  0  0  0
    2.6406  -16.6473   23.5309 H   0  0  0  0  0  0  0  0  0  0  0  0
    4.5496  -15.5219   24.2320 H   0  0  0  0  0  0  0  0  0  0  0  0
    3.5909  -16.6171   26.4316 H   0  0  0  0  0  0  0  0  0  0  0  0
    3.9856  -18.3416   25.4932 H   0  0  0  0  0  0  0  0  0  0  0  0
    2.6125  -17.5514   25.8628 H   0  0  0  0  0  0  0  0  0  0  0  0
    5.9349  -15.7962   23.3685 H   0  0  0  0  0  0  0  0  0  0  0  0
    6.5245  -16.1288   24.8640 H   0  0  0  0  0  0  0  0  0  0  0  0
    8.7730  -14.0222   23.2666 H   0  0  0  0  0  0  0  0  0  0  0  0
    8.3031  -11.5822   19.5759 H   0  0  0  0  0  0  0  0  0  0  0  0
    9.8834  -12.7749   18.7382 H   0  0  0  0  0  0  0  0  0  0  0  0
   11.3340  -10.0999   16.2558 H   0  0  0  0  0  0  0  0  0  0  0  0
    9.7104   -9.7649   15.6335 H   0  0  0  0  0  0  0  0  0  0  0  0
    9.5892   -6.7163   19.3545 H   0  0  0  0  0  0  0  0  0  0  0  0
   10.4246   -8.4491   19.8431 H   0  0  0  0  0  0  0  0  0  0  0  0
  1  2  1  0
  2  3  1  0
  3  4  1  0
  4  5  2  0
  5  6  1  0
  6  7  1  0
  7  8  1  0
  8  9  2  0
  8 10  1  0
 10 11  1  0
 11 12  1  0
 11 13  1  0
 13 14  1  0
 14 15  1  0
 15 16  2  0
 15 17  1  0
 17 18  1  0
 18 19  1  0
 19 20  1  0
 20 21  1  0
 21 22  1  0
 22 23  2  0
  6  2  2  0
 22 18  1  0
  1 24  1  0
  1 25  1  0
  1 26  1  0
  3 27  1  0
  4 28  1  0
  7 29  1  0
  7 30  1  0
 10 31  1  0
 11 32  1  0
 12 33  1  0
 12 34  1  0
 12 35  1  0
 13 36  1  0
 13 37  1  0
 14 38  1  0
 17 39  1  0
 17 40  1  0
 19 41  1  0
 19 42  1  0
 21 43  1  0
 21 44  1  0
M  END
>  <Energy>  (286) 
2549.3243844704657

>  <compound_id>  (286) 
68668

>  <target_id>  (286) 
1

>  <reference_id>  (286) 
98

>  <inspiration_ids>  (286) 
[101, 98]

>  <energy_score>  (286) 
2484.647361752824

>  <distance_score>  (286) 
11.11554831523263

>  <path>  (286) 
/opt/xchem-fragalysis-2/maxwin/BulkDock/SCRATCH/511024/C68668-P98/C68668-P98.minimised.mol

>  <scratch_subdir>  (286) 
/opt/xchem-fragalysis-2/maxwin/BulkDock/SCRATCH/511024/C68668-P98

>  <fragmenstein_runtime>  (286) 
40.69093585014343

>  <fragmenstein_outcome>  (286) 
too moved

>  <fragmenstein_mode>  (286) 
expansion

>  <fragmenstein_error>  (286) 


$$$$
C68670-P101
     RDKit          3D

 40 41  0  0  0  0  0  0  0  0999 V2000
    5.8258   -6.6771   16.1079 O   0  0  0  0  0  0  0  0  0  0  0  0
    4.7794   -6.9262   16.7058 C   0  0  0  0  0  0  0  0  0  0  0  0
    4.5207   -6.3117   18.0485 C   0  0  0  0  0  0  0  0  0  0  0  0
    3.8105   -7.3278   18.9023 C   0  0  0  0  0  0  0  0  0  0  0  0
    2.4374   -7.7141   18.3395 C   0  0  0  0  0  0  0  0  0  0  0  0
    2.3226   -7.7493   16.8063 C   0  0  0  0  0  0  0  0  0  0  0  0
    1.3636   -8.8842   16.2696 C   0  0  0  0  0  0  0  0  0  0  0  0
    1.3428   -8.6924   14.9037 F   0  0  0  0  0  0  0  0  0  0  0  0
    2.0380  -10.0642   16.4324 F   0  0  0  0  0  0  0  0  0  0  0  0
   -0.2200   -9.0142   16.8456 C   0  0  0  0  0  0  0  0  0  0  0  0
   -0.6893   -8.0272   17.3566 O   0  0  0  0  0  0  0  0  0  0  0  0
   -0.8024  -10.3813   16.6537 N   0  0  0  0  0  0  0  0  0  0  0  0
   -2.2115  -10.9587   17.0267 C   0  0  0  0  0  0  0  0  0  0  0  0
   -2.2220  -12.2017   18.0271 C   0  0  0  0  0  0  0  0  0  0  0  0
   -3.4018  -13.1676   18.2369 C   0  0  0  0  0  0  0  0  0  0  0  0
   -3.3220  -14.5403   18.4449 C   0  0  0  0  0  0  0  0  0  0  0  0
   -4.5940  -14.9773   18.7011 N   0  0  0  0  0  0  0  0  0  0  0  0
   -5.4060  -13.8841   18.6377 C   0  0  0  0  0  0  0  0  0  0  0  0
   -4.7191  -12.7830   18.3943 N   0  0  0  0  0  0  0  0  0  0  0  0
   -2.8171  -11.4093   15.7108 C   0  0  0  0  0  0  0  0  0  0  0  0
   -2.2523  -12.0922   14.8666 O   0  0  0  0  0  0  0  0  0  0  0  0
   -4.0715  -10.9665   15.5075 O   0  0  0  0  0  0  0  0  0  0  0  0
    3.7302   -7.8798   16.1495 C   0  0  0  0  0  0  0  0  0  0  0  0
    3.9201   -5.4069   17.9206 H   0  0  0  0  0  0  0  0  0  0  0  0
    5.4791   -6.0665   18.5153 H   0  0  0  0  0  0  0  0  0  0  0  0
    3.6933   -6.9553   19.9262 H   0  0  0  0  0  0  0  0  0  0  0  0
    4.4435   -8.2181   18.9594 H   0  0  0  0  0  0  0  0  0  0  0  0
    1.6951   -6.9971   18.7147 H   0  0  0  0  0  0  0  0  0  0  0  0
    2.1435   -8.6761   18.7634 H   0  0  0  0  0  0  0  0  0  0  0  0
    1.9029   -6.7863   16.4847 H   0  0  0  0  0  0  0  0  0  0  0  0
   -0.1566  -10.9459   16.1072 H   0  0  0  0  0  0  0  0  0  0  0  0
   -2.7876  -10.1261   17.4430 H   0  0  0  0  0  0  0  0  0  0  0  0
   -1.9628  -11.8112   19.0180 H   0  0  0  0  0  0  0  0  0  0  0  0
   -1.3859  -12.8279   17.6894 H   0  0  0  0  0  0  0  0  0  0  0  0
   -2.4804  -15.2185   18.4672 H   0  0  0  0  0  0  0  0  0  0  0  0
   -4.8685  -15.9249   18.9205 H   0  0  0  0  0  0  0  0  0  0  0  0
   -6.4753  -13.9410   18.7885 H   0  0  0  0  0  0  0  0  0  0  0  0
   -4.3368  -11.3580   14.6506 H   0  0  0  0  0  0  0  0  0  0  0  0
    4.1203   -8.8935   16.2979 H   0  0  0  0  0  0  0  0  0  0  0  0
    3.6480   -7.6973   15.0722 H   0  0  0  0  0  0  0  0  0  0  0  0
  1  2  2  0
  2  3  1  0
  3  4  1  0
  4  5  1  0
  5  6  1  0
  6  7  1  0
  7  8  1  0
  7  9  1  0
  7 10  1  0
 10 11  2  0
 10 12  1  0
 12 13  1  0
 13 14  1  0
 14 15  1  0
 15 16  2  0
 16 17  1  0
 17 18  1  0
 18 19  2  0
 13 20  1  0
 20 21  2  0
 20 22  1  0
  6 23  1  0
 23  2  1  0
 19 15  1  0
  3 24  1  0
  3 25  1  0
  4 26  1  0
  4 27  1  0
  5 28  1  0
  5 29  1  0
  6 30  1  0
 12 31  1  0
 13 32  1  0
 14 33  1  0
 14 34  1  0
 16 35  1  0
 17 36  1  0
 18 37  1  0
 22 38  1  0
 23 39  1  0
 23 40  1  0
M  END
>  <Energy>  (287) 
90.081631277325727

>  <compound_id>  (287) 
68670

>  <target_id>  (287) 
1

>  <reference_id>  (287) 
101

>  <inspiration_ids>  (287) 
[101, 98]

>  <energy_score>  (287) 
-15.874397005158187

>  <distance_score>  (287) 
14.297188975481358

>  <path>  (287) 
/opt/xchem-fragalysis-2/maxwin/BulkDock/SCRATCH/511024/C68670-P101/C68670-P101.minimised.mol

>  <scratch_subdir>  (287) 
/opt/xchem-fragalysis-2/maxwin/BulkDock/SCRATCH/511024/C68670-P101

>  <fragmenstein_runtime>  (287) 
38.75543737411499

>  <fragmenstein_outcome>  (287) 
too moved

>  <fragmenstein_mode>  (287) 
expansion

>  <fragmenstein_error>  (287) 


$$$$
C68670-P98
     RDKit          3D

 40 41  0  0  0  0  0  0  0  0999 V2000
    7.9534  -13.1270   17.6754 O   0  0  0  0  0  0  0  0  0  0  0  0
    6.9600  -12.5751   17.1960 C   0  0  0  0  0  0  0  0  0  0  0  0
    7.0612  -11.1477   16.7539 C   0  0  0  0  0  0  0  0  0  0  0  0
    6.3155  -10.9525   15.4544 C   0  0  0  0  0  0  0  0  0  0  0  0
    4.8627  -11.3856   15.5871 C   0  0  0  0  0  0  0  0  0  0  0  0
    4.6873  -12.8850   15.9653 C   0  0  0  0  0  0  0  0  0  0  0  0
    3.1453  -13.1834   16.1776 C   0  0  0  0  0  0  0  0  0  0  0  0
    2.5156  -12.4588   15.1825 F   0  0  0  0  0  0  0  0  0  0  0  0
    2.7819  -12.5450   17.3199 F   0  0  0  0  0  0  0  0  0  0  0  0
    2.5522  -14.7540   16.1085 C   0  0  0  0  0  0  0  0  0  0  0  0
    3.1925  -15.4967   15.4019 O   0  0  0  0  0  0  0  0  0  0  0  0
    1.2949  -14.9990   16.8942 N   0  0  0  0  0  0  0  0  0  0  0  0
    0.3445  -16.2758   16.9680 C   0  0  0  0  0  0  0  0  0  0  0  0
   -0.6079  -16.4534   18.2536 C   0  0  0  0  0  0  0  0  0  0  0  0
   -1.4917  -17.6797   18.5152 C   0  0  0  0  0  0  0  0  0  0  0  0
   -1.1699  -18.8904   19.1058 C   0  0  0  0  0  0  0  0  0  0  0  0
   -2.3584  -19.5335   19.3503 N   0  0  0  0  0  0  0  0  0  0  0  0
   -3.3593  -18.7155   18.9207 C   0  0  0  0  0  0  0  0  0  0  0  0
   -2.8766  -17.5972   18.4215 N   0  0  0  0  0  0  0  0  0  0  0  0
   -0.5702  -16.2394   15.7443 C   0  0  0  0  0  0  0  0  0  0  0  0
   -1.1410  -17.1902   15.2339 O   0  0  0  0  0  0  0  0  0  0  0  0
   -0.7935  -14.9932   15.2662 O   0  0  0  0  0  0  0  0  0  0  0  0
    5.5661  -13.2208   17.1943 C   0  0  0  0  0  0  0  0  0  0  0  0
    8.1181  -10.8946   16.6260 H   0  0  0  0  0  0  0  0  0  0  0  0
    6.6341  -10.5397   17.5569 H   0  0  0  0  0  0  0  0  0  0  0  0
    6.7965  -11.5230   14.6509 H   0  0  0  0  0  0  0  0  0  0  0  0
    6.3294   -9.8984   15.1672 H   0  0  0  0  0  0  0  0  0  0  0  0
    4.3637  -10.7551   16.3332 H   0  0  0  0  0  0  0  0  0  0  0  0
    4.3626  -11.1925   14.6301 H   0  0  0  0  0  0  0  0  0  0  0  0
    5.0394  -13.4804   15.1134 H   0  0  0  0  0  0  0  0  0  0  0  0
    0.9868  -14.1286   17.3078 H   0  0  0  0  0  0  0  0  0  0  0  0
    1.0107  -17.1361   16.8533 H   0  0  0  0  0  0  0  0  0  0  0  0
   -1.2724  -15.5804   18.2811 H   0  0  0  0  0  0  0  0  0  0  0  0
    0.0269  -16.4016   19.1358 H   0  0  0  0  0  0  0  0  0  0  0  0
   -0.2260  -19.3203   19.4107 H   0  0  0  0  0  0  0  0  0  0  0  0
   -2.4689  -20.4419   19.7781 H   0  0  0  0  0  0  0  0  0  0  0  0
   -4.4056  -18.9775   18.9945 H   0  0  0  0  0  0  0  0  0  0  0  0
   -1.4201  -15.1474   14.5276 H   0  0  0  0  0  0  0  0  0  0  0  0
    5.6920  -14.3079   17.2556 H   0  0  0  0  0  0  0  0  0  0  0  0
    5.0729  -12.8983   18.1169 H   0  0  0  0  0  0  0  0  0  0  0  0
  1  2  2  0
  2  3  1  0
  3  4  1  0
  4  5  1  0
  5  6  1  0
  6  7  1  0
  7  8  1  0
  7  9  1  0
  7 10  1  0
 10 11  2  0
 10 12  1  0
 12 13  1  0
 13 14  1  0
 14 15  1  0
 15 16  2  0
 16 17  1  0
 17 18  1  0
 18 19  2  0
 13 20  1  0
 20 21  2  0
 20 22  1  0
  6 23  1  0
 23  2  1  0
 19 15  1  0
  3 24  1  0
  3 25  1  0
  4 26  1  0
  4 27  1  0
  5 28  1  0
  5 29  1  0
  6 30  1  0
 12 31  1  0
 13 32  1  0
 14 33  1  0
 14 34  1  0
 16 35  1  0
 17 36  1  0
 18 37  1  0
 22 38  1  0
 23 39  1  0
 23 40  1  0
M  END
>  <Energy>  (288) 
93.203326908909716

>  <compound_id>  (288) 
68670

>  <target_id>  (288) 
1

>  <reference_id>  (288) 
98

>  <inspiration_ids>  (288) 
[101, 98]

>  <energy_score>  (288) 
-12.752701373573643

>  <distance_score>  (288) 
13.874633760792431

>  <path>  (288) 
/opt/xchem-fragalysis-2/maxwin/BulkDock/SCRATCH/511024/C68670-P98/C68670-P98.minimised.mol

>  <scratch_subdir>  (288) 
/opt/xchem-fragalysis-2/maxwin/BulkDock/SCRATCH/511024/C68670-P98

>  <fragmenstein_runtime>  (288) 
30.767622232437134

>  <fragmenstein_outcome>  (288) 
too moved

>  <fragmenstein_mode>  (288) 
expansion

>  <fragmenstein_error>  (288) 


$$$$
C68671-P101
     RDKit          3D

 35 37  0  0  0  0  0  0  0  0999 V2000
    0.7621  -15.1468   13.7920 O   0  0  0  0  0  0  0  0  0  0  0  0
   -0.0051  -14.4633   14.4174 C   0  0  0  0  0  0  0  0  0  0  0  0
   -1.3554  -14.7595   14.9278 N   0  0  0  0  0  0  0  0  0  0  0  0
   -2.2304  -15.9639   14.7431 C   0  0  0  0  0  0  0  0  0  0  0  0
   -3.4224  -16.3395   15.7050 C   0  0  0  0  0  0  0  0  0  0  0  0
   -4.2742  -17.5439   15.0845 C   0  0  0  0  0  0  0  0  0  0  0  0
   -5.4467  -16.9500   15.9085 C   0  0  0  0  0  0  0  0  0  0  0  0
   -5.3852  -17.3637   17.3764 C   0  0  0  0  0  0  0  0  0  0  0  0
   -3.9289  -17.5164   17.8200 C   0  0  0  0  0  0  0  0  0  0  0  0
   -3.0558  -16.6254   17.0938 O   0  0  0  0  0  0  0  0  0  0  0  0
   -4.7762  -15.5627   15.5853 C   0  0  0  0  0  0  0  0  0  0  0  0
    0.5528  -13.0198   14.7192 C   0  0  0  0  0  0  0  0  0  0  0  0
   -0.3570  -12.1425   15.1919 F   0  0  0  0  0  0  0  0  0  0  0  0
    1.8662  -12.6891   14.5216 C   0  0  0  0  0  0  0  0  0  0  0  0
    2.5503  -11.4389   14.7361 C   0  0  0  0  0  0  0  0  0  0  0  0
    2.2549  -10.0866   14.7904 C   0  0  0  0  0  0  0  0  0  0  0  0
    3.3816   -9.3129   14.9957 N   0  0  0  0  0  0  0  0  0  0  0  0
    4.3701  -10.1668   15.0988 C   0  0  0  0  0  0  0  0  0  0  0  0
    3.9270  -11.4521   14.9368 N   0  0  0  0  0  0  0  0  0  0  0  0
   -1.7458  -13.9188   15.3416 H   0  0  0  0  0  0  0  0  0  0  0  0
   -2.6293  -15.8454   13.7280 H   0  0  0  0  0  0  0  0  0  0  0  0
   -1.5439  -16.8178   14.6929 H   0  0  0  0  0  0  0  0  0  0  0  0
   -3.9534  -18.5590   15.3346 H   0  0  0  0  0  0  0  0  0  0  0  0
   -4.4193  -17.4976   13.9972 H   0  0  0  0  0  0  0  0  0  0  0  0
   -6.4426  -17.0783   15.4738 H   0  0  0  0  0  0  0  0  0  0  0  0
   -5.9121  -18.3111   17.5372 H   0  0  0  0  0  0  0  0  0  0  0  0
   -5.9022  -16.6190   17.9887 H   0  0  0  0  0  0  0  0  0  0  0  0
   -3.5746  -18.5377   17.6420 H   0  0  0  0  0  0  0  0  0  0  0  0
   -3.8223  -17.3175   18.8909 H   0  0  0  0  0  0  0  0  0  0  0  0
   -4.9507  -14.7614   16.3031 H   0  0  0  0  0  0  0  0  0  0  0  0
   -4.9968  -15.1737   14.5832 H   0  0  0  0  0  0  0  0  0  0  0  0
    2.4979  -13.5011   14.1570 H   0  0  0  0  0  0  0  0  0  0  0  0
    1.2845   -9.6206   14.6752 H   0  0  0  0  0  0  0  0  0  0  0  0
    5.4083   -9.9280   15.2866 H   0  0  0  0  0  0  0  0  0  0  0  0
    4.5133  -12.2730   14.9873 H   0  0  0  0  0  0  0  0  0  0  0  0
  1  2  2  0
  2  3  1  0
  3  4  1  0
  4  5  1  0
  5  6  1  0
  6  7  1  0
  7  8  1  0
  8  9  1  0
  9 10  1  0
  7 11  1  0
  2 12  1  0
 12 13  1  0
 12 14  2  3
 14 15  1  0
 15 16  2  0
 16 17  1  0
 17 18  2  0
 18 19  1  0
 10  5  1  0
 19 15  1  0
 11  5  1  0
  3 20  1  0
  4 21  1  0
  4 22  1  0
  6 23  1  0
  6 24  1  0
  7 25  1  0
  8 26  1  0
  8 27  1  0
  9 28  1  0
  9 29  1  0
 11 30  1  0
 11 31  1  0
 14 32  1  0
 16 33  1  0
 18 34  1  0
 19 35  1  0
M  END
>  <Energy>  (289) 
68.360016405027125

>  <compound_id>  (289) 
68671

>  <target_id>  (289) 
1

>  <reference_id>  (289) 
101

>  <inspiration_ids>  (289) 
[101, 98]

>  <energy_score>  (289) 
-11.584496636087806

>  <distance_score>  (289) 
15.352180904586236

>  <path>  (289) 
/opt/xchem-fragalysis-2/maxwin/BulkDock/SCRATCH/511024/C68671-P101/C68671-P101.minimised.mol

>  <scratch_subdir>  (289) 
/opt/xchem-fragalysis-2/maxwin/BulkDock/SCRATCH/511024/C68671-P101

>  <fragmenstein_runtime>  (289) 
27.45629119873047

>  <fragmenstein_outcome>  (289) 
too moved

>  <fragmenstein_mode>  (289) 
expansion

>  <fragmenstein_error>  (289) 


$$$$
C68671-P98
     RDKit          3D

 35 37  0  0  0  0  0  0  0  0999 V2000
    2.3506  -13.6583   15.9477 O   0  0  0  0  0  0  0  0  0  0  0  0
    1.7982  -13.1234   15.0264 C   0  0  0  0  0  0  0  0  0  0  0  0
    0.6306  -13.5209   14.2656 N   0  0  0  0  0  0  0  0  0  0  0  0
   -0.1881  -14.7563   14.3176 C   0  0  0  0  0  0  0  0  0  0  0  0
   -1.6462  -14.7069   14.8514 C   0  0  0  0  0  0  0  0  0  0  0  0
   -2.1064  -13.7558   16.0147 C   0  0  0  0  0  0  0  0  0  0  0  0
   -3.4983  -13.8033   15.2962 C   0  0  0  0  0  0  0  0  0  0  0  0
   -4.3168  -15.0879   15.4295 C   0  0  0  0  0  0  0  0  0  0  0  0
   -3.3901  -16.2668   15.7036 C   0  0  0  0  0  0  0  0  0  0  0  0
   -2.1391  -16.0991   15.0119 O   0  0  0  0  0  0  0  0  0  0  0  0
   -2.6384  -13.8489   13.9874 C   0  0  0  0  0  0  0  0  0  0  0  0
    2.4978  -11.8443   14.4813 C   0  0  0  0  0  0  0  0  0  0  0  0
    1.9012  -11.2720   13.4143 F   0  0  0  0  0  0  0  0  0  0  0  0
    3.6813  -11.4080   14.9865 C   0  0  0  0  0  0  0  0  0  0  0  0
    4.5062  -10.3562   14.4863 C   0  0  0  0  0  0  0  0  0  0  0  0
    4.4015   -9.2855   13.6210 C   0  0  0  0  0  0  0  0  0  0  0  0
    5.6078   -8.6394   13.4617 N   0  0  0  0  0  0  0  0  0  0  0  0
    6.4545   -9.3042   14.2068 C   0  0  0  0  0  0  0  0  0  0  0  0
    5.8270  -10.2998   14.8999 N   0  0  0  0  0  0  0  0  0  0  0  0
    0.4949  -12.8660   13.5007 H   0  0  0  0  0  0  0  0  0  0  0  0
   -0.2006  -15.1441   13.2923 H   0  0  0  0  0  0  0  0  0  0  0  0
    0.3906  -15.4695   14.9114 H   0  0  0  0  0  0  0  0  0  0  0  0
   -2.0424  -14.1516   17.0192 H   0  0  0  0  0  0  0  0  0  0  0  0
   -1.6313  -12.7665   16.0160 H   0  0  0  0  0  0  0  0  0  0  0  0
   -4.1093  -12.9012   15.3992 H   0  0  0  0  0  0  0  0  0  0  0  0
   -5.0650  -15.0056   16.2221 H   0  0  0  0  0  0  0  0  0  0  0  0
   -4.8737  -15.2605   14.5004 H   0  0  0  0  0  0  0  0  0  0  0  0
   -3.8461  -17.2066   15.3779 H   0  0  0  0  0  0  0  0  0  0  0  0
   -3.1811  -16.3561   16.7724 H   0  0  0  0  0  0  0  0  0  0  0  0
   -3.0869  -14.3543   13.1271 H   0  0  0  0  0  0  0  0  0  0  0  0
   -2.2516  -12.8773   13.6562 H   0  0  0  0  0  0  0  0  0  0  0  0
    4.0795  -11.9662   15.8355 H   0  0  0  0  0  0  0  0  0  0  0  0
    3.5225   -8.9568   13.0816 H   0  0  0  0  0  0  0  0  0  0  0  0
    7.5151   -9.1174   14.2917 H   0  0  0  0  0  0  0  0  0  0  0  0
    6.2784  -10.9311   15.5473 H   0  0  0  0  0  0  0  0  0  0  0  0
  1  2  2  0
  2  3  1  0
  3  4  1  0
  4  5  1  0
  5  6  1  0
  6  7  1  0
  7  8  1  0
  8  9  1  0
  9 10  1  0
  7 11  1  0
  2 12  1  0
 12 13  1  0
 12 14  2  3
 14 15  1  0
 15 16  2  0
 16 17  1  0
 17 18  2  0
 18 19  1  0
 10  5  1  0
 19 15  1  0
 11  5  1  0
  3 20  1  0
  4 21  1  0
  4 22  1  0
  6 23  1  0
  6 24  1  0
  7 25  1  0
  8 26  1  0
  8 27  1  0
  9 28  1  0
  9 29  1  0
 11 30  1  0
 11 31  1  0
 14 32  1  0
 16 33  1  0
 18 34  1  0
 19 35  1  0
M  END
>  <Energy>  (290) 
57.125115820161987

>  <compound_id>  (290) 
68671

>  <target_id>  (290) 
1

>  <reference_id>  (290) 
98

>  <inspiration_ids>  (290) 
[101, 98]

>  <energy_score>  (290) 
-22.819397220953164

>  <distance_score>  (290) 
15.569377970633711

>  <path>  (290) 
/opt/xchem-fragalysis-2/maxwin/BulkDock/SCRATCH/511024/C68671-P98/C68671-P98.minimised.mol

>  <scratch_subdir>  (290) 
/opt/xchem-fragalysis-2/maxwin/BulkDock/SCRATCH/511024/C68671-P98

>  <fragmenstein_runtime>  (290) 
16.026256561279297

>  <fragmenstein_outcome>  (290) 
too moved

>  <fragmenstein_mode>  (290) 
expansion

>  <fragmenstein_error>  (290) 


$$$$
C68672-P101
     RDKit          3D

 40 41  0  0  0  0  0  0  0  0999 V2000
    6.1376   -6.7637   18.7779 O   0  0  0  0  0  0  0  0  0  0  0  0
    5.4044   -6.2254   19.5924 C   0  0  0  0  0  0  0  0  0  0  0  0
    5.8576   -5.5610   20.8693 C   0  0  0  0  0  0  0  0  0  0  0  0
    4.6310   -4.8894   21.4406 C   0  0  0  0  0  0  0  0  0  0  0  0
    3.5860   -5.0043   20.3588 C   0  0  0  0  0  0  0  0  0  0  0  0
    4.0217   -6.0996   19.5336 N   0  0  0  0  0  0  0  0  0  0  0  0
    3.1907   -6.5894   18.4335 C   0  0  0  0  0  0  0  0  0  0  0  0
    1.8863   -7.3406   18.8716 C   0  0  0  0  0  0  0  0  0  0  0  0
    0.6224   -6.4654   19.0087 C   0  0  0  0  0  0  0  0  0  0  0  0
    0.7625   -5.3008   19.2840 O   0  0  0  0  0  0  0  0  0  0  0  0
   -0.5698   -7.2145   18.6769 N   0  0  0  0  0  0  0  0  0  0  0  0
   -1.9948   -6.7531   18.4596 C   0  0  0  0  0  0  0  0  0  0  0  0
   -2.2725   -5.2855   18.8744 C   0  0  0  0  0  0  0  0  0  0  0  0
   -3.6367   -4.9399   18.6345 O   0  0  0  0  0  0  0  0  0  0  0  0
   -1.2028   -7.8257   19.9742 C   0  0  0  0  0  0  0  0  0  0  0  0
   -1.9441   -9.1823   19.8433 C   0  0  0  0  0  0  0  0  0  0  0  0
   -2.7243   -9.6007   18.8601 N   0  0  0  0  0  0  0  0  0  0  0  0
   -2.9524  -10.9245   19.0828 C   0  0  0  0  0  0  0  0  0  0  0  0
   -2.3451  -11.3204   20.2262 C   0  0  0  0  0  0  0  0  0  0  0  0
   -1.7909  -10.2006   20.7710 N   0  0  0  0  0  0  0  0  0  0  0  0
    6.2231   -6.3187   21.5675 H   0  0  0  0  0  0  0  0  0  0  0  0
    6.6271   -4.8252   20.6756 H   0  0  0  0  0  0  0  0  0  0  0  0
    4.3044   -5.4251   22.3405 H   0  0  0  0  0  0  0  0  0  0  0  0
    4.8120   -3.8510   21.7352 H   0  0  0  0  0  0  0  0  0  0  0  0
    3.5391   -4.0975   19.7465 H   0  0  0  0  0  0  0  0  0  0  0  0
    2.6098   -5.2105   20.8000 H   0  0  0  0  0  0  0  0  0  0  0  0
    3.8008   -7.2933   17.8556 H   0  0  0  0  0  0  0  0  0  0  0  0
    2.9609   -5.7426   17.7773 H   0  0  0  0  0  0  0  0  0  0  0  0
    2.0425   -7.8349   19.8357 H   0  0  0  0  0  0  0  0  0  0  0  0
    1.6747   -8.1058   18.1149 H   0  0  0  0  0  0  0  0  0  0  0  0
   -2.0333   -6.7211   17.3584 H   0  0  0  0  0  0  0  0  0  0  0  0
   -2.8667   -7.3845   18.6556 H   0  0  0  0  0  0  0  0  0  0  0  0
   -1.6503   -4.5984   18.2922 H   0  0  0  0  0  0  0  0  0  0  0  0
   -2.0663   -5.1070   19.9334 H   0  0  0  0  0  0  0  0  0  0  0  0
   -4.1964   -5.6102   19.0621 H   0  0  0  0  0  0  0  0  0  0  0  0
   -1.7446   -7.1170   20.6199 H   0  0  0  0  0  0  0  0  0  0  0  0
   -0.3226   -8.0634   20.5937 H   0  0  0  0  0  0  0  0  0  0  0  0
   -3.5009  -11.5253   18.3829 H   0  0  0  0  0  0  0  0  0  0  0  0
   -2.1820  -12.3011   20.5952 H   0  0  0  0  0  0  0  0  0  0  0  0
   -1.0975  -10.1874   21.5064 H   0  0  0  0  0  0  0  0  0  0  0  0
  1  2  2  0
  2  3  1  0
  3  4  1  0
  4  5  1  0
  5  6  1  0
  6  7  1  0
  7  8  1  0
  8  9  1  0
  9 10  2  0
  9 11  1  0
 11 12  1  0
 12 13  1  0
 13 14  1  0
 11 15  1  0
 15 16  1  0
 16 17  2  0
 17 18  1  0
 18 19  2  0
 19 20  1  0
  6  2  1  0
 20 16  1  0
  3 21  1  0
  3 22  1  0
  4 23  1  0
  4 24  1  0
  5 25  1  0
  5 26  1  0
  7 27  1  0
  7 28  1  0
  8 29  1  0
  8 30  1  0
 12 31  1  0
 12 32  1  0
 13 33  1  0
 13 34  1  0
 14 35  1  0
 15 36  1  0
 15 37  1  0
 18 38  1  0
 19 39  1  0
 20 40  1  0
M  END
>  <Energy>  (291) 
80.361966508595501

>  <compound_id>  (291) 
68672

>  <target_id>  (291) 
1

>  <reference_id>  (291) 
101

>  <inspiration_ids>  (291) 
[101, 98]

>  <energy_score>  (291) 
58.296262207385155

>  <distance_score>  (291) 
14.622525392209111

>  <path>  (291) 
/opt/xchem-fragalysis-2/maxwin/BulkDock/SCRATCH/511024/C68672-P101/C68672-P101.minimised.mol

>  <scratch_subdir>  (291) 
/opt/xchem-fragalysis-2/maxwin/BulkDock/SCRATCH/511024/C68672-P101

>  <fragmenstein_runtime>  (291) 
32.00021028518677

>  <fragmenstein_outcome>  (291) 
too moved

>  <fragmenstein_mode>  (291) 
expansion

>  <fragmenstein_error>  (291) 


$$$$
C68672-P98
     RDKit          3D

 40 41  0  0  0  0  0  0  0  0999 V2000
    9.7361   -9.0955   23.5766 O   0  0  0  0  0  0  0  0  0  0  0  0
   10.1983  -10.1070   23.0727 C   0  0  0  0  0  0  0  0  0  0  0  0
   11.4300  -10.1093   22.2057 C   0  0  0  0  0  0  0  0  0  0  0  0
   11.1861  -11.3193   21.3277 C   0  0  0  0  0  0  0  0  0  0  0  0
   10.4465  -12.2785   22.2521 C   0  0  0  0  0  0  0  0  0  0  0  0
    9.7160  -11.4203   23.1633 N   0  0  0  0  0  0  0  0  0  0  0  0
    8.3832  -11.7936   23.6844 C   0  0  0  0  0  0  0  0  0  0  0  0
    8.2108  -12.8072   24.9020 C   0  0  0  0  0  0  0  0  0  0  0  0
    8.0914  -14.3379   24.5857 C   0  0  0  0  0  0  0  0  0  0  0  0
    8.4360  -14.6792   23.4805 O   0  0  0  0  0  0  0  0  0  0  0  0
    7.6607  -15.1446   25.7443 N   0  0  0  0  0  0  0  0  0  0  0  0
    7.6276  -16.6350   25.9385 C   0  0  0  0  0  0  0  0  0  0  0  0
    9.0914  -17.1413   25.8651 C   0  0  0  0  0  0  0  0  0  0  0  0
    9.8699  -16.5399   26.8993 O   0  0  0  0  0  0  0  0  0  0  0  0
    6.0559  -15.3469   25.7199 C   0  0  0  0  0  0  0  0  0  0  0  0
    5.1390  -16.3006   26.6026 C   0  0  0  0  0  0  0  0  0  0  0  0
    4.7033  -17.5102   26.2586 N   0  0  0  0  0  0  0  0  0  0  0  0
    3.7917  -17.9101   27.2154 C   0  0  0  0  0  0  0  0  0  0  0  0
    3.6732  -16.9443   28.1792 C   0  0  0  0  0  0  0  0  0  0  0  0
    4.5223  -15.9336   27.7855 N   0  0  0  0  0  0  0  0  0  0  0  0
   11.4937   -9.1850   21.6305 H   0  0  0  0  0  0  0  0  0  0  0  0
   12.3150  -10.2268   22.8379 H   0  0  0  0  0  0  0  0  0  0  0  0
   10.5386  -11.0414   20.4864 H   0  0  0  0  0  0  0  0  0  0  0  0
   12.1055  -11.7481   20.9199 H   0  0  0  0  0  0  0  0  0  0  0  0
    9.7649  -12.9245   21.6911 H   0  0  0  0  0  0  0  0  0  0  0  0
   11.1323  -12.8931   22.8438 H   0  0  0  0  0  0  0  0  0  0  0  0
    7.9170  -10.8563   24.0130 H   0  0  0  0  0  0  0  0  0  0  0  0
    7.7994  -12.1403   22.8264 H   0  0  0  0  0  0  0  0  0  0  0  0
    7.2903  -12.5293   25.4290 H   0  0  0  0  0  0  0  0  0  0  0  0
    9.0509  -12.6774   25.5932 H   0  0  0  0  0  0  0  0  0  0  0  0
    7.1304  -17.1818   25.1248 H   0  0  0  0  0  0  0  0  0  0  0  0
    7.3244  -16.8870   26.9618 H   0  0  0  0  0  0  0  0  0  0  0  0
    9.5533  -16.9014   24.9021 H   0  0  0  0  0  0  0  0  0  0  0  0
    9.1231  -18.2262   26.0047 H   0  0  0  0  0  0  0  0  0  0  0  0
    9.7257  -15.5800   26.8124 H   0  0  0  0  0  0  0  0  0  0  0  0
    5.6952  -14.3357   25.9476 H   0  0  0  0  0  0  0  0  0  0  0  0
    5.7812  -15.5355   24.6725 H   0  0  0  0  0  0  0  0  0  0  0  0
    3.2788  -18.8608   27.1450 H   0  0  0  0  0  0  0  0  0  0  0  0
    3.0724  -16.8720   29.0747 H   0  0  0  0  0  0  0  0  0  0  0  0
    4.6482  -15.0499   28.2598 H   0  0  0  0  0  0  0  0  0  0  0  0
  1  2  2  0
  2  3  1  0
  3  4  1  0
  4  5  1  0
  5  6  1  0
  6  7  1  0
  7  8  1  0
  8  9  1  0
  9 10  2  0
  9 11  1  0
 11 12  1  0
 12 13  1  0
 13 14  1  0
 11 15  1  0
 15 16  1  0
 16 17  2  0
 17 18  1  0
 18 19  2  0
 19 20  1  0
  6  2  1  0
 20 16  1  0
  3 21  1  0
  3 22  1  0
  4 23  1  0
  4 24  1  0
  5 25  1  0
  5 26  1  0
  7 27  1  0
  7 28  1  0
  8 29  1  0
  8 30  1  0
 12 31  1  0
 12 32  1  0
 13 33  1  0
 13 34  1  0
 14 35  1  0
 15 36  1  0
 15 37  1  0
 18 38  1  0
 19 39  1  0
 20 40  1  0
M  END
>  <Energy>  (292) 
83.572503466923209

>  <compound_id>  (292) 
68672

>  <target_id>  (292) 
1

>  <reference_id>  (292) 
98

>  <inspiration_ids>  (292) 
[101, 98]

>  <energy_score>  (292) 
61.5067991657134

>  <distance_score>  (292) 
13.912748081819291

>  <path>  (292) 
/opt/xchem-fragalysis-2/maxwin/BulkDock/SCRATCH/511024/C68672-P98/C68672-P98.minimised.mol

>  <scratch_subdir>  (292) 
/opt/xchem-fragalysis-2/maxwin/BulkDock/SCRATCH/511024/C68672-P98

>  <fragmenstein_runtime>  (292) 
40.433982133865356

>  <fragmenstein_outcome>  (292) 
too moved

>  <fragmenstein_mode>  (292) 
expansion

>  <fragmenstein_error>  (292) 


$$$$
C68673-P101
     RDKit          3D

 43 44  0  0  0  0  0  0  0  0999 V2000
    8.9508   -9.0906   25.4553 C   0  0  0  0  0  0  0  0  0  0  0  0
    9.2963  -10.4822   24.9084 C   0  0  0  0  0  0  0  0  0  0  0  0
    8.1022  -11.5483   25.3207 C   0  0  0  0  0  0  0  0  0  0  0  0
    7.4521  -12.0420   24.4389 O   0  0  0  0  0  0  0  0  0  0  0  0
    7.9838  -11.6780   26.7643 N   0  0  0  0  0  0  0  0  0  0  0  0
    8.8520  -12.8377   27.2654 C   0  0  0  0  0  0  0  0  0  0  0  0
    9.1832  -14.0596   26.3802 C   0  0  0  0  0  0  0  0  0  0  0  0
    8.6417  -15.2479   26.9369 O   0  0  0  0  0  0  0  0  0  0  0  0
    6.9007  -12.4060   27.6457 C   0  0  0  0  0  0  0  0  0  0  0  0
    6.0955  -13.7298   27.4583 C   0  0  0  0  0  0  0  0  0  0  0  0
    6.0173  -14.5433   26.4196 N   0  0  0  0  0  0  0  0  0  0  0  0
    5.1322  -15.5543   26.7513 C   0  0  0  0  0  0  0  0  0  0  0  0
    4.6338  -15.3709   28.0117 C   0  0  0  0  0  0  0  0  0  0  0  0
    5.2325  -14.2193   28.4499 N   0  0  0  0  0  0  0  0  0  0  0  0
    5.0094  -13.6248   29.7473 C   0  0  0  0  0  0  0  0  0  0  0  0
    9.7169  -10.3021   23.4611 N   0  0  0  0  0  0  0  0  0  0  0  0
    9.4524  -11.2834   22.4373 C   0  0  0  0  0  0  0  0  0  0  0  0
    9.9851  -10.6873   21.1454 C   0  0  0  0  0  0  0  0  0  0  0  0
   11.0325   -9.6952   21.5880 C   0  0  0  0  0  0  0  0  0  0  0  0
   10.7459   -9.4501   23.0423 C   0  0  0  0  0  0  0  0  0  0  0  0
   11.3619   -8.6231   23.6965 O   0  0  0  0  0  0  0  0  0  0  0  0
    9.8241   -8.4364   25.5130 H   0  0  0  0  0  0  0  0  0  0  0  0
    8.5381   -9.1466   26.4676 H   0  0  0  0  0  0  0  0  0  0  0  0
    8.2006   -8.6006   24.8253 H   0  0  0  0  0  0  0  0  0  0  0  0
   10.1978  -10.8453   25.4178 H   0  0  0  0  0  0  0  0  0  0  0  0
    8.8007  -13.1035   28.3357 H   0  0  0  0  0  0  0  0  0  0  0  0
    9.8184  -12.3035   27.2660 H   0  0  0  0  0  0  0  0  0  0  0  0
    8.8935  -13.9597   25.3362 H   0  0  0  0  0  0  0  0  0  0  0  0
   10.2698  -14.2043   26.3826 H   0  0  0  0  0  0  0  0  0  0  0  0
    7.7643  -15.3706   26.5131 H   0  0  0  0  0  0  0  0  0  0  0  0
    6.0915  -11.6723   27.5037 H   0  0  0  0  0  0  0  0  0  0  0  0
    7.1356  -12.2392   28.7111 H   0  0  0  0  0  0  0  0  0  0  0  0
    4.9255  -16.3563   26.0581 H   0  0  0  0  0  0  0  0  0  0  0  0
    3.9353  -15.9393   28.6098 H   0  0  0  0  0  0  0  0  0  0  0  0
    4.2111  -14.1637   30.2643 H   0  0  0  0  0  0  0  0  0  0  0  0
    5.9363  -13.6952   30.3216 H   0  0  0  0  0  0  0  0  0  0  0  0
    4.7152  -12.5818   29.6089 H   0  0  0  0  0  0  0  0  0  0  0  0
    8.3823  -11.4700   22.3460 H   0  0  0  0  0  0  0  0  0  0  0  0
    9.9772  -12.2083   22.6983 H   0  0  0  0  0  0  0  0  0  0  0  0
   10.3846  -11.4514   20.4713 H   0  0  0  0  0  0  0  0  0  0  0  0
    9.1917  -10.1699   20.5969 H   0  0  0  0  0  0  0  0  0  0  0  0
   10.9257   -8.7544   21.0482 H   0  0  0  0  0  0  0  0  0  0  0  0
   12.0432  -10.0989   21.4839 H   0  0  0  0  0  0  0  0  0  0  0  0
  1  2  1  0
  2  3  1  0
  3  4  2  0
  3  5  1  0
  5  6  1  0
  6  7  1  0
  7  8  1  0
  5  9  1  0
  9 10  1  0
 10 11  2  0
 11 12  1  0
 12 13  2  0
 13 14  1  0
 14 15  1  0
  2 16  1  0
 16 17  1  0
 17 18  1  0
 18 19  1  0
 19 20  1  0
 20 21  2  0
 14 10  1  0
 20 16  1  0
  1 22  1  0
  1 23  1  0
  1 24  1  0
  2 25  1  0
  6 26  1  0
  6 27  1  0
  7 28  1  0
  7 29  1  0
  8 30  1  0
  9 31  1  0
  9 32  1  0
 12 33  1  0
 13 34  1  0
 15 35  1  0
 15 36  1  0
 15 37  1  0
 17 38  1  0
 17 39  1  0
 18 40  1  0
 18 41  1  0
 19 42  1  0
 19 43  1  0
M  END
>  <Energy>  (293) 
131.01316292471034

>  <compound_id>  (293) 
68673

>  <target_id>  (293) 
1

>  <reference_id>  (293) 
101

>  <inspiration_ids>  (293) 
[101, 98]

>  <energy_score>  (293) 
55.902487198903486

>  <distance_score>  (293) 
14.544479780831049

>  <path>  (293) 
/opt/xchem-fragalysis-2/maxwin/BulkDock/SCRATCH/511024/C68673-P101/C68673-P101.minimised.mol

>  <scratch_subdir>  (293) 
/opt/xchem-fragalysis-2/maxwin/BulkDock/SCRATCH/511024/C68673-P101

>  <fragmenstein_runtime>  (293) 
30.779704093933105

>  <fragmenstein_outcome>  (293) 
too moved

>  <fragmenstein_mode>  (293) 
expansion

>  <fragmenstein_error>  (293) 


$$$$
C68673-P98
     RDKit          3D

 43 44  0  0  0  0  0  0  0  0999 V2000
    4.9109   -7.6007   24.4079 C   0  0  0  0  0  0  0  0  0  0  0  0
    3.9162   -8.3839   22.9613 C   0  0  0  0  0  0  0  0  0  0  0  0
    3.3871  -10.5665   22.8718 C   0  0  0  0  0  0  0  0  0  0  0  0
    4.1435  -11.2881   22.2234 O   0  0  0  0  0  0  0  0  0  0  0  0
    1.9491  -11.4804   23.8337 N   0  0  0  0  0  0  0  0  0  0  0  0
    0.5142  -11.5517   22.7970 C   0  0  0  0  0  0  0  0  0  0  0  0
   -0.3135  -10.1606   21.9258 C   0  0  0  0  0  0  0  0  0  0  0  0
    0.4880   -9.0919   21.4337 O   0  0  0  0  0  0  0  0  0  0  0  0
    1.5216  -13.3341   24.1211 C   0  0  0  0  0  0  0  0  0  0  0  0
   -0.3919  -14.2273   24.4094 C   0  0  0  0  0  0  0  0  0  0  0  0
   -1.1940  -14.7355   23.4529 N   0  0  0  0  0  0  0  0  0  0  0  0
   -2.4996  -15.2808   23.9625 C   0  0  0  0  0  0  0  0  0  0  0  0
   -2.6121  -15.5500   25.1960 C   0  0  0  0  0  0  0  0  0  0  0  0
   -1.8678  -14.3438   25.5776 N   0  0  0  0  0  0  0  0  0  0  0  0
   -2.2437  -14.8750   27.2105 C   0  0  0  0  0  0  0  0  0  0  0  0
    4.5222   -6.8097   22.2790 N   0  0  0  0  0  0  0  0  0  0  0  0
    5.7924   -6.4312   21.6510 C   0  0  0  0  0  0  0  0  0  0  0  0
    5.6439   -4.9965   21.1971 C   0  0  0  0  0  0  0  0  0  0  0  0
    4.7239   -4.4095   22.2208 C   0  0  0  0  0  0  0  0  0  0  0  0
    3.9048   -5.5952   22.6541 C   0  0  0  0  0  0  0  0  0  0  0  0
    2.8807   -5.4944   23.3045 O   0  0  0  0  0  0  0  0  0  0  0  0
    5.3124   -8.3451   25.1065 H   0  0  0  0  0  0  0  0  0  0  0  0
    4.2471   -6.8781   24.8999 H   0  0  0  0  0  0  0  0  0  0  0  0
    5.7832   -7.0047   24.1210 H   0  0  0  0  0  0  0  0  0  0  0  0
    2.8626   -7.9666   23.0343 H   0  0  0  0  0  0  0  0  0  0  0  0
   -0.1577  -12.3982   22.6969 H   0  0  0  0  0  0  0  0  0  0  0  0
    1.1455  -11.5752   22.0464 H   0  0  0  0  0  0  0  0  0  0  0  0
   -0.8746  -10.5881   21.0914 H   0  0  0  0  0  0  0  0  0  0  0  0
   -1.1221   -9.6733   22.4471 H   0  0  0  0  0  0  0  0  0  0  0  0
    1.0621   -8.8714   22.1844 H   0  0  0  0  0  0  0  0  0  0  0  0
    1.6422  -13.1798   25.2188 H   0  0  0  0  0  0  0  0  0  0  0  0
    2.3838  -13.8637   23.6326 H   0  0  0  0  0  0  0  0  0  0  0  0
   -3.3693  -15.2327   23.3589 H   0  0  0  0  0  0  0  0  0  0  0  0
   -3.3623  -16.0528   25.8036 H   0  0  0  0  0  0  0  0  0  0  0  0
   -3.2213  -14.4471   27.4324 H   0  0  0  0  0  0  0  0  0  0  0  0
   -2.3703  -15.9650   27.3109 H   0  0  0  0  0  0  0  0  0  0  0  0
   -1.4980  -14.6390   27.8990 H   0  0  0  0  0  0  0  0  0  0  0  0
    6.5974   -6.4908   22.3849 H   0  0  0  0  0  0  0  0  0  0  0  0
    6.0175   -7.0038   20.7589 H   0  0  0  0  0  0  0  0  0  0  0  0
    5.1837   -4.9554   20.2036 H   0  0  0  0  0  0  0  0  0  0  0  0
    6.6003   -4.4786   21.1681 H   0  0  0  0  0  0  0  0  0  0  0  0
    4.0889   -3.6262   21.8000 H   0  0  0  0  0  0  0  0  0  0  0  0
    5.2704   -4.0250   23.0877 H   0  0  0  0  0  0  0  0  0  0  0  0
  1  2  1  0
  2  3  1  0
  3  4  2  0
  3  5  1  0
  5  6  1  0
  6  7  1  0
  7  8  1  0
  5  9  1  0
  9 10  1  0
 10 11  2  0
 11 12  1  0
 12 13  2  0
 13 14  1  0
 14 15  1  0
  2 16  1  0
 16 17  1  0
 17 18  1  0
 18 19  1  0
 19 20  1  0
 20 21  2  0
 14 10  1  0
 20 16  1  0
  1 22  1  0
  1 23  1  0
  1 24  1  0
  2 25  1  0
  6 26  1  0
  6 27  1  0
  7 28  1  0
  7 29  1  0
  8 30  1  0
  9 31  1  0
  9 32  1  0
 12 33  1  0
 13 34  1  0
 15 35  1  0
 15 36  1  0
 15 37  1  0
 17 38  1  0
 17 39  1  0
 18 40  1  0
 18 41  1  0
 19 42  1  0
 19 43  1  0
M  END
>  <Energy>  (294) 
942.09689526026307

>  <compound_id>  (294) 
68673

>  <target_id>  (294) 
1

>  <reference_id>  (294) 
98

>  <inspiration_ids>  (294) 
[101, 98]

>  <energy_score>  (294) 
866.9862195344595

>  <distance_score>  (294) 
12.683137379108635

>  <path>  (294) 
/opt/xchem-fragalysis-2/maxwin/BulkDock/SCRATCH/511024/C68673-P98/C68673-P98.minimised.mol

>  <scratch_subdir>  (294) 
/opt/xchem-fragalysis-2/maxwin/BulkDock/SCRATCH/511024/C68673-P98

>  <fragmenstein_runtime>  (294) 
24.27313494682312

>  <fragmenstein_outcome>  (294) 
too moved

>  <fragmenstein_mode>  (294) 
expansion

>  <fragmenstein_error>  (294) 


$$$$
C68674-P101
     RDKit          3D

 46 47  0  0  0  0  0  0  0  0999 V2000
   -5.9110  -22.7980   27.4107 C   0  0  0  0  0  0  0  0  0  0  0  0
   -5.7402  -22.6171   26.0361 C   0  0  0  0  0  0  0  0  0  0  0  0
   -6.0045  -23.6471   24.7551 N   0  0  0  0  0  0  0  0  0  0  0  0
   -6.2379  -23.0158   23.5061 C   0  0  0  0  0  0  0  0  0  0  0  0
   -5.8782  -21.7025   23.5860 N   0  0  0  0  0  0  0  0  0  0  0  0
   -4.8435  -21.4040   25.0445 C   0  0  0  0  0  0  0  0  0  0  0  0
   -4.2537  -19.8431   24.8264 C   0  0  0  0  0  0  0  0  0  0  0  0
   -5.0690  -19.2525   24.2528 O   0  0  0  0  0  0  0  0  0  0  0  0
   -2.7247  -18.6091   25.3502 N   0  0  0  0  0  0  0  0  0  0  0  0
   -2.5181  -16.6100   25.1628 C   0  0  0  0  0  0  0  0  0  0  0  0
   -2.9968  -16.0561   26.6829 C   0  0  0  0  0  0  0  0  0  0  0  0
   -1.3524  -15.0416   24.3931 C   0  0  0  0  0  0  0  0  0  0  0  0
    0.4696  -14.1237   23.9909 C   0  0  0  0  0  0  0  0  0  0  0  0
    1.5377  -12.4603   23.7439 N   0  0  0  0  0  0  0  0  0  0  0  0
    1.1279  -10.9848   23.0210 C   0  0  0  0  0  0  0  0  0  0  0  0
    0.1051  -10.6893   22.4224 O   0  0  0  0  0  0  0  0  0  0  0  0
    2.1474   -9.5601   23.1849 C   0  0  0  0  0  0  0  0  0  0  0  0
    3.2051   -8.6795   22.4721 N   0  0  0  0  0  0  0  0  0  0  0  0
    2.7732   -7.5386   21.6581 C   0  0  0  0  0  0  0  0  0  0  0  0
    3.9667   -6.6049   21.5502 C   0  0  0  0  0  0  0  0  0  0  0  0
    5.1585   -7.5115   21.7203 C   0  0  0  0  0  0  0  0  0  0  0  0
    4.6156   -8.6440   22.5742 C   0  0  0  0  0  0  0  0  0  0  0  0
    5.3642   -9.4111   23.1549 O   0  0  0  0  0  0  0  0  0  0  0  0
   -6.9376  -23.0190   27.6480 H   0  0  0  0  0  0  0  0  0  0  0  0
   -5.7129  -21.8232   27.7909 H   0  0  0  0  0  0  0  0  0  0  0  0
   -5.1307  -23.4275   27.7949 H   0  0  0  0  0  0  0  0  0  0  0  0
   -6.2529  -24.5893   24.8687 H   0  0  0  0  0  0  0  0  0  0  0  0
   -6.6821  -23.5150   22.6574 H   0  0  0  0  0  0  0  0  0  0  0  0
   -2.0753  -19.1365   25.9199 H   0  0  0  0  0  0  0  0  0  0  0  0
   -3.3496  -16.0843   24.6916 H   0  0  0  0  0  0  0  0  0  0  0  0
   -2.6842  -16.7889   27.4170 H   0  0  0  0  0  0  0  0  0  0  0  0
   -4.0689  -15.9067   26.7694 H   0  0  0  0  0  0  0  0  0  0  0  0
   -2.5544  -15.0839   26.9215 H   0  0  0  0  0  0  0  0  0  0  0  0
   -1.6296  -14.9927   23.3885 H   0  0  0  0  0  0  0  0  0  0  0  0
   -1.7888  -14.2709   25.0688 H   0  0  0  0  0  0  0  0  0  0  0  0
    0.6926  -14.0137   25.0618 H   0  0  0  0  0  0  0  0  0  0  0  0
    1.2376  -14.6979   23.4811 H   0  0  0  0  0  0  0  0  0  0  0  0
    2.4188  -12.3644   24.2335 H   0  0  0  0  0  0  0  0  0  0  0  0
    1.3009   -8.9071   22.8926 H   0  0  0  0  0  0  0  0  0  0  0  0
    2.1051   -9.2275   24.2376 H   0  0  0  0  0  0  0  0  0  0  0  0
    1.9347   -7.0232   22.1375 H   0  0  0  0  0  0  0  0  0  0  0  0
    2.4490   -7.9096   20.6811 H   0  0  0  0  0  0  0  0  0  0  0  0
    3.9819   -6.0431   20.6120 H   0  0  0  0  0  0  0  0  0  0  0  0
    3.9387   -5.8787   22.3722 H   0  0  0  0  0  0  0  0  0  0  0  0
    5.9809   -7.0035   22.2304 H   0  0  0  0  0  0  0  0  0  0  0  0
    5.5054   -7.9146   20.7643 H   0  0  0  0  0  0  0  0  0  0  0  0
  1  2  1  0
  2  3  1  0
  3  4  1  0
  4  5  2  0
  5  6  1  0
  6  7  1  0
  7  8  2  0
  7  9  1  0
  9 10  1  0
 10 11  1  0
 10 12  1  0
 12 13  1  0
 13 14  1  0
 14 15  1  0
 15 16  2  0
 15 17  1  0
 17 18  1  0
 18 19  1  0
 19 20  1  0
 20 21  1  0
 21 22  1  0
 22 23  2  0
  6  2  2  0
 22 18  1  0
  1 24  1  0
  1 25  1  0
  1 26  1  0
  3 27  1  0
  4 28  1  0
  9 29  1  0
 10 30  1  0
 11 31  1  0
 11 32  1  0
 11 33  1  0
 12 34  1  0
 12 35  1  0
 13 36  1  0
 13 37  1  0
 14 38  1  0
 17 39  1  0
 17 40  1  0
 19 41  1  0
 19 42  1  0
 20 43  1  0
 20 44  1  0
 21 45  1  0
 21 46  1  0
M  END
>  <Energy>  (295) 
900.35396708115672

>  <compound_id>  (295) 
68674

>  <target_id>  (295) 
1

>  <reference_id>  (295) 
101

>  <inspiration_ids>  (295) 
[101, 98]

>  <energy_score>  (295) 
867.8888312616206

>  <distance_score>  (295) 
11.338263396482835

>  <path>  (295) 
/opt/xchem-fragalysis-2/maxwin/BulkDock/SCRATCH/511024/C68674-P101/C68674-P101.minimised.mol

>  <scratch_subdir>  (295) 
/opt/xchem-fragalysis-2/maxwin/BulkDock/SCRATCH/511024/C68674-P101

>  <fragmenstein_runtime>  (295) 
27.512556076049805

>  <fragmenstein_outcome>  (295) 
too moved

>  <fragmenstein_mode>  (295) 
expansion

>  <fragmenstein_error>  (295) 


$$$$
C68674-P98
     RDKit          3D

 46 47  0  0  0  0  0  0  0  0999 V2000
   -7.4059  -21.4869   27.6134 C   0  0  0  0  0  0  0  0  0  0  0  0
   -5.9252  -21.5364   27.2020 C   0  0  0  0  0  0  0  0  0  0  0  0
   -6.1712  -22.8130   26.5976 N   0  0  0  0  0  0  0  0  0  0  0  0
   -5.6255  -23.1706   27.6870 C   0  0  0  0  0  0  0  0  0  0  0  0
   -4.7468  -22.4666   27.1210 N   0  0  0  0  0  0  0  0  0  0  0  0
   -4.7326  -20.8689   26.1747 C   0  0  0  0  0  0  0  0  0  0  0  0
   -2.9011  -19.7750   26.5477 C   0  0  0  0  0  0  0  0  0  0  0  0
   -2.1354  -19.9160   27.4304 O   0  0  0  0  0  0  0  0  0  0  0  0
   -2.8914  -18.9985   25.5914 N   0  0  0  0  0  0  0  0  0  0  0  0
   -2.0398  -17.9434   25.2482 C   0  0  0  0  0  0  0  0  0  0  0  0
   -1.5024  -19.3222   23.6209 C   0  0  0  0  0  0  0  0  0  0  0  0
   -2.3296  -15.8483   24.9038 C   0  0  0  0  0  0  0  0  0  0  0  0
   -1.0987  -14.1465   24.7401 C   0  0  0  0  0  0  0  0  0  0  0  0
    0.7940  -13.9283   25.3806 N   0  0  0  0  0  0  0  0  0  0  0  0
    2.2973  -13.2350   24.5475 C   0  0  0  0  0  0  0  0  0  0  0  0
    2.4096  -12.6573   23.4816 O   0  0  0  0  0  0  0  0  0  0  0  0
    4.0649  -13.7063   25.4784 C   0  0  0  0  0  0  0  0  0  0  0  0
    5.7067  -12.7884   25.8217 N   0  0  0  0  0  0  0  0  0  0  0  0
    6.7792  -12.1089   24.9074 C   0  0  0  0  0  0  0  0  0  0  0  0
    7.3439  -10.8888   25.6031 C   0  0  0  0  0  0  0  0  0  0  0  0
    7.3587  -11.3935   27.0003 C   0  0  0  0  0  0  0  0  0  0  0  0
    6.0373  -12.1308   27.0690 C   0  0  0  0  0  0  0  0  0  0  0  0
    5.3726  -12.0654   28.0895 O   0  0  0  0  0  0  0  0  0  0  0  0
   -7.7606  -22.2554   28.2495 H   0  0  0  0  0  0  0  0  0  0  0  0
   -7.7109  -20.4875   27.6304 H   0  0  0  0  0  0  0  0  0  0  0  0
   -8.0054  -21.9822   26.9048 H   0  0  0  0  0  0  0  0  0  0  0  0
   -6.9725  -23.1265   26.0679 H   0  0  0  0  0  0  0  0  0  0  0  0
   -5.6461  -23.7973   28.5605 H   0  0  0  0  0  0  0  0  0  0  0  0
   -3.7550  -19.1127   25.0948 H   0  0  0  0  0  0  0  0  0  0  0  0
   -1.2715  -18.0260   26.0557 H   0  0  0  0  0  0  0  0  0  0  0  0
   -1.4968  -18.9030   22.6059 H   0  0  0  0  0  0  0  0  0  0  0  0
   -2.0549  -20.3035   23.6051 H   0  0  0  0  0  0  0  0  0  0  0  0
   -0.3459  -19.4255   23.6926 H   0  0  0  0  0  0  0  0  0  0  0  0
   -2.8769  -15.5863   25.8467 H   0  0  0  0  0  0  0  0  0  0  0  0
   -3.1401  -15.6043   24.2118 H   0  0  0  0  0  0  0  0  0  0  0  0
   -0.8321  -14.2309   23.7067 H   0  0  0  0  0  0  0  0  0  0  0  0
   -1.6879  -13.4409   25.3214 H   0  0  0  0  0  0  0  0  0  0  0  0
    1.0386  -14.2709   26.3123 H   0  0  0  0  0  0  0  0  0  0  0  0
    4.3911  -14.6153   24.9439 H   0  0  0  0  0  0  0  0  0  0  0  0
    3.8158  -14.1577   26.4649 H   0  0  0  0  0  0  0  0  0  0  0  0
    6.4489  -11.7389   23.9493 H   0  0  0  0  0  0  0  0  0  0  0  0
    7.6346  -12.7801   24.7918 H   0  0  0  0  0  0  0  0  0  0  0  0
    6.6795  -10.0248   25.5014 H   0  0  0  0  0  0  0  0  0  0  0  0
    8.3339  -10.6077   25.2333 H   0  0  0  0  0  0  0  0  0  0  0  0
    7.3908  -10.5775   27.7270 H   0  0  0  0  0  0  0  0  0  0  0  0
    8.1736  -12.0967   27.1997 H   0  0  0  0  0  0  0  0  0  0  0  0
  1  2  1  0
  2  3  1  0
  3  4  1  0
  4  5  2  0
  5  6  1  0
  6  7  1  0
  7  8  2  0
  7  9  1  0
  9 10  1  0
 10 11  1  0
 10 12  1  0
 12 13  1  0
 13 14  1  0
 14 15  1  0
 15 16  2  0
 15 17  1  0
 17 18  1  0
 18 19  1  0
 19 20  1  0
 20 21  1  0
 21 22  1  0
 22 23  2  0
  6  2  2  0
 22 18  1  0
  1 24  1  0
  1 25  1  0
  1 26  1  0
  3 27  1  0
  4 28  1  0
  9 29  1  0
 10 30  1  0
 11 31  1  0
 11 32  1  0
 11 33  1  0
 12 34  1  0
 12 35  1  0
 13 36  1  0
 13 37  1  0
 14 38  1  0
 17 39  1  0
 17 40  1  0
 19 41  1  0
 19 42  1  0
 20 43  1  0
 20 44  1  0
 21 45  1  0
 21 46  1  0
M  END
>  <Energy>  (296) 
1207.2451868143485

>  <compound_id>  (296) 
68674

>  <target_id>  (296) 
1

>  <reference_id>  (296) 
98

>  <inspiration_ids>  (296) 
[101, 98]

>  <energy_score>  (296) 
1174.7800509948108

>  <distance_score>  (296) 
12.917245930370193

>  <path>  (296) 
/opt/xchem-fragalysis-2/maxwin/BulkDock/SCRATCH/511024/C68674-P98/C68674-P98.minimised.mol

>  <scratch_subdir>  (296) 
/opt/xchem-fragalysis-2/maxwin/BulkDock/SCRATCH/511024/C68674-P98

>  <fragmenstein_runtime>  (296) 
40.33441209793091

>  <fragmenstein_outcome>  (296) 
too moved

>  <fragmenstein_mode>  (296) 
expansion

>  <fragmenstein_error>  (296) 


$$$$
C68675-P101
     RDKit          3D

 35 37  0  0  0  0  0  0  0  0999 V2000
    6.3089  -15.7327   16.2483 O   0  0  0  0  0  0  0  0  0  0  0  0
    6.6134  -15.9573   17.4143 C   0  0  0  0  0  0  0  0  0  0  0  0
    7.4347  -15.1203   18.1451 O   0  0  0  0  0  0  0  0  0  0  0  0
    7.9878  -13.9671   17.4290 C   0  0  0  0  0  0  0  0  0  0  0  0
    6.9432  -12.8385   17.2771 C   0  0  0  0  0  0  0  0  0  0  0  0
    7.5076  -11.4636   16.8698 C   0  0  0  0  0  0  0  0  0  0  0  0
    8.8890  -11.5566   16.2347 C   0  0  0  0  0  0  0  0  0  0  0  0
    9.8825  -12.1663   17.2146 C   0  0  0  0  0  0  0  0  0  0  0  0
    9.2491  -13.2840   18.0373 C   0  0  0  0  0  0  0  0  0  0  0  0
    9.7571  -13.6079   19.1109 O   0  0  0  0  0  0  0  0  0  0  0  0
    6.1371  -17.2205   18.1267 C   0  0  0  0  0  0  0  0  0  0  0  0
    6.5216  -17.5639   19.4093 C   0  0  0  0  0  0  0  0  0  0  0  0
    6.1493  -18.7291   20.0286 N   0  0  0  0  0  0  0  0  0  0  0  0
    5.4300  -19.5996   19.2788 C   0  0  0  0  0  0  0  0  0  0  0  0
    5.0068  -19.2862   17.9949 C   0  0  0  0  0  0  0  0  0  0  0  0
    4.2200  -20.1917   17.2404 N   0  0  0  0  0  0  0  0  0  0  0  0
    3.7552  -19.9739   15.9609 C   0  0  0  0  0  0  0  0  0  0  0  0
    3.0492  -21.1007   15.6178 C   0  0  0  0  0  0  0  0  0  0  0  0
    3.0602  -22.0075   16.6413 N   0  0  0  0  0  0  0  0  0  0  0  0
    3.7614  -21.4383   17.5980 C   0  0  0  0  0  0  0  0  0  0  0  0
    5.3308  -18.0833   17.4209 N   0  0  0  0  0  0  0  0  0  0  0  0
    8.3143  -14.3227   16.4422 H   0  0  0  0  0  0  0  0  0  0  0  0
    6.3742  -12.7316   18.2099 H   0  0  0  0  0  0  0  0  0  0  0  0
    6.2017  -13.1475   16.5301 H   0  0  0  0  0  0  0  0  0  0  0  0
    6.8073  -10.9722   16.1851 H   0  0  0  0  0  0  0  0  0  0  0  0
    7.5657  -10.8355   17.7674 H   0  0  0  0  0  0  0  0  0  0  0  0
    9.2430  -10.5721   15.9145 H   0  0  0  0  0  0  0  0  0  0  0  0
    8.8311  -12.1755   15.3308 H   0  0  0  0  0  0  0  0  0  0  0  0
   10.7505  -12.5657   16.6812 H   0  0  0  0  0  0  0  0  0  0  0  0
   10.2268  -11.3992   17.9159 H   0  0  0  0  0  0  0  0  0  0  0  0
    7.1778  -16.9219   19.9881 H   0  0  0  0  0  0  0  0  0  0  0  0
    5.1934  -20.5283   19.7844 H   0  0  0  0  0  0  0  0  0  0  0  0
    3.9656  -19.0586   15.4239 H   0  0  0  0  0  0  0  0  0  0  0  0
    2.5346  -21.3046   14.6873 H   0  0  0  0  0  0  0  0  0  0  0  0
    3.9558  -21.8968   18.5577 H   0  0  0  0  0  0  0  0  0  0  0  0
  1  2  2  0
  2  3  1  0
  3  4  1  0
  4  5  1  0
  5  6  1  0
  6  7  1  0
  7  8  1  0
  8  9  1  0
  9 10  2  0
  2 11  1  0
 11 12  2  0
 12 13  1  0
 13 14  2  0
 14 15  1  0
 15 16  1  0
 16 17  1  0
 17 18  2  0
 18 19  1  0
 19 20  2  0
 15 21  2  0
  9  4  1  0
 21 11  1  0
 20 16  1  0
  4 22  1  0
  5 23  1  0
  5 24  1  0
  6 25  1  0
  6 26  1  0
  7 27  1  0
  7 28  1  0
  8 29  1  0
  8 30  1  0
 12 31  1  0
 14 32  1  0
 17 33  1  0
 18 34  1  0
 20 35  1  0
M  END
>  <Energy>  (297) 
137.62075237313672

>  <compound_id>  (297) 
68675

>  <target_id>  (297) 
1

>  <reference_id>  (297) 
101

>  <inspiration_ids>  (297) 
[101, 98]

>  <energy_score>  (297) 
-35.64319313164708

>  <distance_score>  (297) 
15.976327507878235

>  <path>  (297) 
/opt/xchem-fragalysis-2/maxwin/BulkDock/SCRATCH/511024/C68675-P101/C68675-P101.minimised.mol

>  <scratch_subdir>  (297) 
/opt/xchem-fragalysis-2/maxwin/BulkDock/SCRATCH/511024/C68675-P101

>  <fragmenstein_runtime>  (297) 
16.86011815071106

>  <fragmenstein_outcome>  (297) 
too moved

>  <fragmenstein_mode>  (297) 
expansion

>  <fragmenstein_error>  (297) 


$$$$
C68675-P98
     RDKit          3D

 35 37  0  0  0  0  0  0  0  0999 V2000
    0.2476  -14.4506   24.3836 O   0  0  0  0  0  0  0  0  0  0  0  0
   -0.7786  -13.9791   23.9738 C   0  0  0  0  0  0  0  0  0  0  0  0
   -0.3873  -12.6999   22.6803 O   0  0  0  0  0  0  0  0  0  0  0  0
   -0.7409  -10.9326   21.8783 C   0  0  0  0  0  0  0  0  0  0  0  0
   -0.7976   -9.3007   22.1548 C   0  0  0  0  0  0  0  0  0  0  0  0
   -0.5085   -8.3702   20.9538 C   0  0  0  0  0  0  0  0  0  0  0  0
   -1.5660   -8.4951   19.8888 C   0  0  0  0  0  0  0  0  0  0  0  0
   -2.4112   -9.7419   20.0881 C   0  0  0  0  0  0  0  0  0  0  0  0
   -1.7301  -11.0091   20.6274 C   0  0  0  0  0  0  0  0  0  0  0  0
   -2.0451  -12.0717   20.0992 O   0  0  0  0  0  0  0  0  0  0  0  0
   -2.3440  -14.6763   25.0250 C   0  0  0  0  0  0  0  0  0  0  0  0
   -3.3536  -13.7429   25.4855 C   0  0  0  0  0  0  0  0  0  0  0  0
   -4.5818  -13.9630   26.0667 N   0  0  0  0  0  0  0  0  0  0  0  0
   -4.8632  -15.2327   26.3259 C   0  0  0  0  0  0  0  0  0  0  0  0
   -3.9820  -16.2171   25.9527 C   0  0  0  0  0  0  0  0  0  0  0  0
   -4.1637  -17.5000   26.5540 N   0  0  0  0  0  0  0  0  0  0  0  0
   -3.1811  -18.4310   26.8253 C   0  0  0  0  0  0  0  0  0  0  0  0
   -3.8190  -19.5049   27.3967 C   0  0  0  0  0  0  0  0  0  0  0  0
   -5.1603  -19.2695   27.4982 N   0  0  0  0  0  0  0  0  0  0  0  0
   -5.3351  -18.0566   27.0218 C   0  0  0  0  0  0  0  0  0  0  0  0
   -2.8480  -15.9478   25.1613 N   0  0  0  0  0  0  0  0  0  0  0  0
    0.2983  -10.7483   21.5826 H   0  0  0  0  0  0  0  0  0  0  0  0
   -1.7979   -9.0265   22.5214 H   0  0  0  0  0  0  0  0  0  0  0  0
   -0.0511   -8.8866   22.8150 H   0  0  0  0  0  0  0  0  0  0  0  0
   -0.4898   -7.3297   21.3049 H   0  0  0  0  0  0  0  0  0  0  0  0
    0.4974   -8.5537   20.5632 H   0  0  0  0  0  0  0  0  0  0  0  0
   -2.2307   -7.6223   19.9257 H   0  0  0  0  0  0  0  0  0  0  0  0
   -1.1194   -8.4629   18.8891 H   0  0  0  0  0  0  0  0  0  0  0  0
   -2.8848   -9.9939   19.1308 H   0  0  0  0  0  0  0  0  0  0  0  0
   -3.2361   -9.5224   20.7786 H   0  0  0  0  0  0  0  0  0  0  0  0
   -3.2025  -12.6695   25.3660 H   0  0  0  0  0  0  0  0  0  0  0  0
   -5.7618  -15.3892   26.9086 H   0  0  0  0  0  0  0  0  0  0  0  0
   -2.1407  -18.2520   26.6015 H   0  0  0  0  0  0  0  0  0  0  0  0
   -3.3805  -20.4324   27.7429 H   0  0  0  0  0  0  0  0  0  0  0  0
   -6.2962  -17.5636   26.9612 H   0  0  0  0  0  0  0  0  0  0  0  0
  1  2  2  0
  2  3  1  0
  3  4  1  0
  4  5  1  0
  5  6  1  0
  6  7  1  0
  7  8  1  0
  8  9  1  0
  9 10  2  0
  2 11  1  0
 11 12  2  0
 12 13  1  0
 13 14  2  0
 14 15  1  0
 15 16  1  0
 16 17  1  0
 17 18  2  0
 18 19  1  0
 19 20  2  0
 15 21  2  0
  9  4  1  0
 21 11  1  0
 20 16  1  0
  4 22  1  0
  5 23  1  0
  5 24  1  0
  6 25  1  0
  6 26  1  0
  7 27  1  0
  7 28  1  0
  8 29  1  0
  8 30  1  0
 12 31  1  0
 14 32  1  0
 17 33  1  0
 18 34  1  0
 20 35  1  0
M  END
>  <Energy>  (298) 
501.40234672750393

>  <compound_id>  (298) 
68675

>  <target_id>  (298) 
1

>  <reference_id>  (298) 
98

>  <inspiration_ids>  (298) 
[101, 98]

>  <energy_score>  (298) 
328.13840122271756

>  <distance_score>  (298) 
15.665224488683474

>  <path>  (298) 
/opt/xchem-fragalysis-2/maxwin/BulkDock/SCRATCH/511024/C68675-P98/C68675-P98.minimised.mol

>  <scratch_subdir>  (298) 
/opt/xchem-fragalysis-2/maxwin/BulkDock/SCRATCH/511024/C68675-P98

>  <fragmenstein_runtime>  (298) 
14.345141410827637

>  <fragmenstein_outcome>  (298) 
too moved

>  <fragmenstein_mode>  (298) 
expansion

>  <fragmenstein_error>  (298) 


$$$$
C68678-P101
     RDKit          3D

 37 39  0  0  0  0  0  0  0  0999 V2000
   -0.9914  -19.4798   23.3666 O   0  0  0  0  0  0  0  0  0  0  0  0
   -1.7258  -19.6442   22.4620 C   0  0  0  0  0  0  0  0  0  0  0  0
   -1.4001  -18.4724   21.1700 O   0  0  0  0  0  0  0  0  0  0  0  0
   -0.8166  -16.9911   20.3570 C   0  0  0  0  0  0  0  0  0  0  0  0
   -0.0019  -16.8117   18.6595 C   0  0  0  0  0  0  0  0  0  0  0  0
    1.0788  -15.9505   17.6192 N   0  0  0  0  0  0  0  0  0  0  0  0
    1.7633  -14.6204   17.7322 C   0  0  0  0  0  0  0  0  0  0  0  0
    2.7672  -14.4743   16.6062 C   0  0  0  0  0  0  0  0  0  0  0  0
    2.1636  -15.3414   15.5477 C   0  0  0  0  0  0  0  0  0  0  0  0
    1.4230  -16.4064   16.3412 C   0  0  0  0  0  0  0  0  0  0  0  0
    1.1848  -17.5023   15.8722 O   0  0  0  0  0  0  0  0  0  0  0  0
   -2.7933  -21.0735   22.6336 C   0  0  0  0  0  0  0  0  0  0  0  0
   -3.2344  -21.4637   23.8895 C   0  0  0  0  0  0  0  0  0  0  0  0
   -4.1557  -22.4397   24.1281 N   0  0  0  0  0  0  0  0  0  0  0  0
   -4.7899  -22.9004   23.0261 C   0  0  0  0  0  0  0  0  0  0  0  0
   -4.5056  -22.4066   21.7616 C   0  0  0  0  0  0  0  0  0  0  0  0
   -5.4956  -22.4541   20.7498 N   0  0  0  0  0  0  0  0  0  0  0  0
   -6.8109  -22.8177   20.8806 C   0  0  0  0  0  0  0  0  0  0  0  0
   -7.4341  -22.3615   19.7459 C   0  0  0  0  0  0  0  0  0  0  0  0
   -6.5372  -21.8015   18.8797 N   0  0  0  0  0  0  0  0  0  0  0  0
   -5.3786  -21.8918   19.4974 C   0  0  0  0  0  0  0  0  0  0  0  0
   -3.4370  -21.5838   21.5307 N   0  0  0  0  0  0  0  0  0  0  0  0
   -0.1553  -16.6059   21.1175 H   0  0  0  0  0  0  0  0  0  0  0  0
   -1.7627  -16.4618   20.2219 H   0  0  0  0  0  0  0  0  0  0  0  0
    0.6376  -16.3357   19.3657 H   0  0  0  0  0  0  0  0  0  0  0  0
   -0.8683  -16.2779   18.2523 H   0  0  0  0  0  0  0  0  0  0  0  0
    2.3532  -14.5492   18.6490 H   0  0  0  0  0  0  0  0  0  0  0  0
    1.0055  -13.8355   17.6340 H   0  0  0  0  0  0  0  0  0  0  0  0
    3.7449  -14.8634   16.9117 H   0  0  0  0  0  0  0  0  0  0  0  0
    2.9066  -13.4361   16.2921 H   0  0  0  0  0  0  0  0  0  0  0  0
    1.4383  -14.7986   14.9333 H   0  0  0  0  0  0  0  0  0  0  0  0
    2.9264  -15.7931   14.9082 H   0  0  0  0  0  0  0  0  0  0  0  0
   -2.9697  -20.8704   24.7472 H   0  0  0  0  0  0  0  0  0  0  0  0
   -5.5913  -23.6039   23.2245 H   0  0  0  0  0  0  0  0  0  0  0  0
   -7.2282  -23.2974   21.7512 H   0  0  0  0  0  0  0  0  0  0  0  0
   -8.4929  -22.4087   19.5349 H   0  0  0  0  0  0  0  0  0  0  0  0
   -4.4320  -21.5319   19.1137 H   0  0  0  0  0  0  0  0  0  0  0  0
  1  2  2  0
  2  3  1  0
  3  4  1  0
  4  5  1  0
  5  6  1  0
  6  7  1  0
  7  8  1  0
  8  9  1  0
  9 10  1  0
 10 11  2  0
  2 12  1  0
 12 13  2  0
 13 14  1  0
 14 15  2  0
 15 16  1  0
 16 17  1  0
 17 18  1  0
 18 19  2  0
 19 20  1  0
 20 21  2  0
 16 22  2  0
 10  6  1  0
 22 12  1  0
 21 17  1  0
  4 23  1  0
  4 24  1  0
  5 25  1  0
  5 26  1  0
  7 27  1  0
  7 28  1  0
  8 29  1  0
  8 30  1  0
  9 31  1  0
  9 32  1  0
 13 33  1  0
 15 34  1  0
 18 35  1  0
 19 36  1  0
 21 37  1  0
M  END
>  <Energy>  (299) 
424.00395471399389

>  <compound_id>  (299) 
68678

>  <target_id>  (299) 
1

>  <reference_id>  (299) 
101

>  <inspiration_ids>  (299) 
[101, 98]

>  <energy_score>  (299) 
284.05393862289793

>  <distance_score>  (299) 
15.21979735911162

>  <path>  (299) 
/opt/xchem-fragalysis-2/maxwin/BulkDock/SCRATCH/511024/C68678-P101/C68678-P101.minimised.mol

>  <scratch_subdir>  (299) 
/opt/xchem-fragalysis-2/maxwin/BulkDock/SCRATCH/511024/C68678-P101

>  <fragmenstein_runtime>  (299) 
16.70553207397461

>  <fragmenstein_outcome>  (299) 
too moved

>  <fragmenstein_mode>  (299) 
expansion

>  <fragmenstein_error>  (299) 


$$$$
C68678-P98
     RDKit          3D

 37 39  0  0  0  0  0  0  0  0999 V2000
    3.9983  -14.8939   15.7574 O   0  0  0  0  0  0  0  0  0  0  0  0
    3.3165  -14.0797   16.3760 C   0  0  0  0  0  0  0  0  0  0  0  0
    3.8352  -12.8689   16.8179 O   0  0  0  0  0  0  0  0  0  0  0  0
    5.2940  -12.7717   16.6141 C   0  0  0  0  0  0  0  0  0  0  0  0
    5.9824  -11.3895   16.9224 C   0  0  0  0  0  0  0  0  0  0  0  0
    7.4510  -11.3912   16.7405 N   0  0  0  0  0  0  0  0  0  0  0  0
    8.0825  -11.8183   15.5087 C   0  0  0  0  0  0  0  0  0  0  0  0
    9.5575  -11.5116   15.7081 C   0  0  0  0  0  0  0  0  0  0  0  0
    9.7286  -11.6665   17.2055 C   0  0  0  0  0  0  0  0  0  0  0  0
    8.4044  -11.1621   17.7335 C   0  0  0  0  0  0  0  0  0  0  0  0
    8.2283  -10.6872   18.8440 O   0  0  0  0  0  0  0  0  0  0  0  0
    1.8479  -14.3874   16.6668 C   0  0  0  0  0  0  0  0  0  0  0  0
    0.8941  -13.4238   16.9240 C   0  0  0  0  0  0  0  0  0  0  0  0
   -0.4431  -13.7062   17.0497 N   0  0  0  0  0  0  0  0  0  0  0  0
   -0.8006  -15.0119   16.9320 C   0  0  0  0  0  0  0  0  0  0  0  0
    0.1256  -16.0094   16.6918 C   0  0  0  0  0  0  0  0  0  0  0  0
   -0.2837  -17.3481   16.4748 N   0  0  0  0  0  0  0  0  0  0  0  0
   -1.5460  -17.8917   16.5644 C   0  0  0  0  0  0  0  0  0  0  0  0
   -1.4156  -19.2036   16.1690 C   0  0  0  0  0  0  0  0  0  0  0  0
   -0.1231  -19.4836   15.8283 N   0  0  0  0  0  0  0  0  0  0  0  0
    0.5388  -18.3711   16.0605 C   0  0  0  0  0  0  0  0  0  0  0  0
    1.4499  -15.7034   16.5494 N   0  0  0  0  0  0  0  0  0  0  0  0
    5.5019  -13.0122   15.5643 H   0  0  0  0  0  0  0  0  0  0  0  0
    5.7631  -13.5361   17.2460 H   0  0  0  0  0  0  0  0  0  0  0  0
    5.7473  -11.0896   17.9492 H   0  0  0  0  0  0  0  0  0  0  0  0
    5.5658  -10.6247   16.2580 H   0  0  0  0  0  0  0  0  0  0  0  0
    7.9241  -12.8966   15.3987 H   0  0  0  0  0  0  0  0  0  0  0  0
    7.6463  -11.3013   14.6520 H   0  0  0  0  0  0  0  0  0  0  0  0
    9.7954  -10.4850   15.4215 H   0  0  0  0  0  0  0  0  0  0  0  0
   10.2059  -12.1784   15.1329 H   0  0  0  0  0  0  0  0  0  0  0  0
    9.8335  -12.7195   17.4889 H   0  0  0  0  0  0  0  0  0  0  0  0
   10.5813  -11.1120   17.5883 H   0  0  0  0  0  0  0  0  0  0  0  0
    1.1568  -12.3748   17.0088 H   0  0  0  0  0  0  0  0  0  0  0  0
   -1.8644  -15.1928   17.0290 H   0  0  0  0  0  0  0  0  0  0  0  0
   -2.4128  -17.3438   16.9002 H   0  0  0  0  0  0  0  0  0  0  0  0
   -2.1873  -19.9610   16.1146 H   0  0  0  0  0  0  0  0  0  0  0  0
    1.6042  -18.2377   15.9255 H   0  0  0  0  0  0  0  0  0  0  0  0
  1  2  2  0
  2  3  1  0
  3  4  1  0
  4  5  1  0
  5  6  1  0
  6  7  1  0
  7  8  1  0
  8  9  1  0
  9 10  1  0
 10 11  2  0
  2 12  1  0
 12 13  2  0
 13 14  1  0
 14 15  2  0
 15 16  1  0
 16 17  1  0
 17 18  1  0
 18 19  2  0
 19 20  1  0
 20 21  2  0
 16 22  2  0
 10  6  1  0
 22 12  1  0
 21 17  1  0
  4 23  1  0
  4 24  1  0
  5 25  1  0
  5 26  1  0
  7 27  1  0
  7 28  1  0
  8 29  1  0
  8 30  1  0
  9 31  1  0
  9 32  1  0
 13 33  1  0
 15 34  1  0
 18 35  1  0
 19 36  1  0
 21 37  1  0
M  END
>  <Energy>  (300) 
119.58058563761369

>  <compound_id>  (300) 
68678

>  <target_id>  (300) 
1

>  <reference_id>  (300) 
98

>  <inspiration_ids>  (300) 
[101, 98]

>  <energy_score>  (300) 
-20.369430453482494

>  <distance_score>  (300) 
15.386208148722538

>  <path>  (300) 
/opt/xchem-fragalysis-2/maxwin/BulkDock/SCRATCH/511024/C68678-P98/C68678-P98.minimised.mol

>  <scratch_subdir>  (300) 
/opt/xchem-fragalysis-2/maxwin/BulkDock/SCRATCH/511024/C68678-P98

>  <fragmenstein_runtime>  (300) 
16.052268028259277

>  <fragmenstein_outcome>  (300) 
too moved

>  <fragmenstein_mode>  (300) 
expansion

>  <fragmenstein_error>  (300) 


$$$$
C68680-P101
     RDKit          3D

 38 40  0  0  0  0  0  0  0  0999 V2000
    0.6673  -18.9942   21.5436 O   0  0  0  0  0  0  0  0  0  0  0  0
   -0.3588  -18.5313   21.6928 C   0  0  0  0  0  0  0  0  0  0  0  0
   -0.4532  -17.0326   20.7990 N   0  0  0  0  0  0  0  0  0  0  0  0
    0.6790  -16.1770   19.9250 C   0  0  0  0  0  0  0  0  0  0  0  0
    1.9517  -15.1997   18.5737 C   0  0  0  0  0  0  0  0  0  0  0  0
    3.2634  -14.9611   17.8060 N   0  0  0  0  0  0  0  0  0  0  0  0
    3.2506  -14.9568   16.3480 C   0  0  0  0  0  0  0  0  0  0  0  0
    4.6819  -14.6440   15.9464 C   0  0  0  0  0  0  0  0  0  0  0  0
    5.0809  -13.5807   16.9377 C   0  0  0  0  0  0  0  0  0  0  0  0
    4.0764  -13.7450   18.0631 C   0  0  0  0  0  0  0  0  0  0  0  0
    3.9605  -12.8644   18.9082 O   0  0  0  0  0  0  0  0  0  0  0  0
   -1.5249  -19.8302   22.8968 C   0  0  0  0  0  0  0  0  0  0  0  0
   -2.7474  -20.6211   23.2342 C   0  0  0  0  0  0  0  0  0  0  0  0
   -3.5504  -21.8342   23.1247 N   0  0  0  0  0  0  0  0  0  0  0  0
   -2.8253  -22.9020   23.0543 C   0  0  0  0  0  0  0  0  0  0  0  0
   -1.4898  -22.6730   23.1307 C   0  0  0  0  0  0  0  0  0  0  0  0
   -0.7534  -23.8643   22.9551 N   0  0  0  0  0  0  0  0  0  0  0  0
   -0.8443  -24.9937   23.7501 C   0  0  0  0  0  0  0  0  0  0  0  0
   -0.1352  -25.9702   23.0934 C   0  0  0  0  0  0  0  0  0  0  0  0
    0.3223  -25.5083   21.8910 N   0  0  0  0  0  0  0  0  0  0  0  0
   -0.0971  -24.2626   21.8132 C   0  0  0  0  0  0  0  0  0  0  0  0
   -0.8837  -21.2921   23.1395 N   0  0  0  0  0  0  0  0  0  0  0  0
   -1.4078  -16.6975   20.8882 H   0  0  0  0  0  0  0  0  0  0  0  0
    1.1835  -15.8026   20.7348 H   0  0  0  0  0  0  0  0  0  0  0  0
    0.7597  -17.1517   19.4254 H   0  0  0  0  0  0  0  0  0  0  0  0
    1.3936  -14.4127   18.0191 H   0  0  0  0  0  0  0  0  0  0  0  0
    2.3980  -14.6524   19.4247 H   0  0  0  0  0  0  0  0  0  0  0  0
    2.8795  -15.8905   15.9222 H   0  0  0  0  0  0  0  0  0  0  0  0
    2.5827  -14.1531   16.0086 H   0  0  0  0  0  0  0  0  0  0  0  0
    4.7652  -14.3109   14.9081 H   0  0  0  0  0  0  0  0  0  0  0  0
    5.3174  -15.5286   16.0705 H   0  0  0  0  0  0  0  0  0  0  0  0
    6.1008  -13.7127   17.3066 H   0  0  0  0  0  0  0  0  0  0  0  0
    4.9643  -12.5815   16.5062 H   0  0  0  0  0  0  0  0  0  0  0  0
   -2.8811  -20.5693   24.3613 H   0  0  0  0  0  0  0  0  0  0  0  0
   -3.3186  -23.8554   22.9458 H   0  0  0  0  0  0  0  0  0  0  0  0
   -1.3672  -24.9876   24.6952 H   0  0  0  0  0  0  0  0  0  0  0  0
    0.0544  -26.9872   23.4130 H   0  0  0  0  0  0  0  0  0  0  0  0
    0.0351  -23.6146   20.9583 H   0  0  0  0  0  0  0  0  0  0  0  0
  1  2  2  0
  2  3  1  0
  3  4  1  0
  4  5  1  0
  5  6  1  0
  6  7  1  0
  7  8  1  0
  8  9  1  0
  9 10  1  0
 10 11  2  0
  2 12  1  0
 12 13  2  0
 13 14  1  0
 14 15  2  0
 15 16  1  0
 16 17  1  0
 17 18  1  0
 18 19  2  0
 19 20  1  0
 20 21  2  0
 16 22  2  0
 10  6  1  0
 22 12  1  0
 21 17  1  0
  3 23  1  0
  4 24  1  0
  4 25  1  0
  5 26  1  0
  5 27  1  0
  7 28  1  0
  7 29  1  0
  8 30  1  0
  8 31  1  0
  9 32  1  0
  9 33  1  0
 13 34  1  0
 15 35  1  0
 18 36  1  0
 19 37  1  0
 21 38  1  0
M  END
>  <Energy>  (301) 
731.31678286522674

>  <compound_id>  (301) 
68680

>  <target_id>  (301) 
1

>  <reference_id>  (301) 
101

>  <inspiration_ids>  (301) 
[101, 98]

>  <energy_score>  (301) 
592.0656627844726

>  <distance_score>  (301) 
14.345606058324625

>  <path>  (301) 
/opt/xchem-fragalysis-2/maxwin/BulkDock/SCRATCH/511024/C68680-P101/C68680-P101.minimised.mol

>  <scratch_subdir>  (301) 
/opt/xchem-fragalysis-2/maxwin/BulkDock/SCRATCH/511024/C68680-P101

>  <fragmenstein_runtime>  (301) 
22.623239517211914

>  <fragmenstein_outcome>  (301) 
too moved

>  <fragmenstein_mode>  (301) 
expansion

>  <fragmenstein_error>  (301) 


$$$$
C68680-P98
     RDKit          3D

 38 40  0  0  0  0  0  0  0  0999 V2000
   -0.9557   -9.3865   19.6363 O   0  0  0  0  0  0  0  0  0  0  0  0
   -0.5291  -10.1892   18.8521 C   0  0  0  0  0  0  0  0  0  0  0  0
    0.7913  -10.3290   18.2660 N   0  0  0  0  0  0  0  0  0  0  0  0
    2.0486   -9.5903   18.5229 C   0  0  0  0  0  0  0  0  0  0  0  0
    3.2351   -9.6440   17.5045 C   0  0  0  0  0  0  0  0  0  0  0  0
    3.9914   -8.3867   17.4072 N   0  0  0  0  0  0  0  0  0  0  0  0
    3.4446   -7.2432   16.7178 C   0  0  0  0  0  0  0  0  0  0  0  0
    4.5936   -6.2642   16.6959 C   0  0  0  0  0  0  0  0  0  0  0  0
    5.3004   -6.5580   18.0059 C   0  0  0  0  0  0  0  0  0  0  0  0
    5.1219   -8.0457   18.1421 C   0  0  0  0  0  0  0  0  0  0  0  0
    5.8613   -8.7675   18.7880 O   0  0  0  0  0  0  0  0  0  0  0  0
   -1.5627  -11.2575   18.4790 C   0  0  0  0  0  0  0  0  0  0  0  0
   -2.7181  -11.3985   19.2607 C   0  0  0  0  0  0  0  0  0  0  0  0
   -3.6859  -12.3346   19.0389 N   0  0  0  0  0  0  0  0  0  0  0  0
   -3.4666  -13.1378   17.9742 C   0  0  0  0  0  0  0  0  0  0  0  0
   -2.3460  -13.0027   17.1595 C   0  0  0  0  0  0  0  0  0  0  0  0
   -2.2431  -13.7558   15.9585 N   0  0  0  0  0  0  0  0  0  0  0  0
   -1.2578  -13.6075   15.0032 C   0  0  0  0  0  0  0  0  0  0  0  0
   -1.5661  -14.4925   13.9994 C   0  0  0  0  0  0  0  0  0  0  0  0
   -2.7094  -15.1793   14.2968 N   0  0  0  0  0  0  0  0  0  0  0  0
   -3.0858  -14.7302   15.4748 C   0  0  0  0  0  0  0  0  0  0  0  0
   -1.3522  -12.0791   17.4175 N   0  0  0  0  0  0  0  0  0  0  0  0
    0.8163  -11.1779   17.7027 H   0  0  0  0  0  0  0  0  0  0  0  0
    2.4090   -9.9404   19.4976 H   0  0  0  0  0  0  0  0  0  0  0  0
    1.7390   -8.5514   18.6840 H   0  0  0  0  0  0  0  0  0  0  0  0
    2.8593   -9.8787   16.5027 H   0  0  0  0  0  0  0  0  0  0  0  0
    3.9234  -10.4421   17.8033 H   0  0  0  0  0  0  0  0  0  0  0  0
    2.5960   -6.8545   17.2896 H   0  0  0  0  0  0  0  0  0  0  0  0
    3.1181   -7.5218   15.7119 H   0  0  0  0  0  0  0  0  0  0  0  0
    5.2600   -6.4959   15.8585 H   0  0  0  0  0  0  0  0  0  0  0  0
    4.2533   -5.2316   16.5952 H   0  0  0  0  0  0  0  0  0  0  0  0
    6.3494   -6.2970   17.9689 H   0  0  0  0  0  0  0  0  0  0  0  0
    4.8179   -6.0636   18.8547 H   0  0  0  0  0  0  0  0  0  0  0  0
   -2.8988  -10.7399   20.1042 H   0  0  0  0  0  0  0  0  0  0  0  0
   -4.2510  -13.8653   17.8040 H   0  0  0  0  0  0  0  0  0  0  0  0
   -0.4463  -12.9038   15.1215 H   0  0  0  0  0  0  0  0  0  0  0  0
   -1.0248  -14.6691   13.0786 H   0  0  0  0  0  0  0  0  0  0  0  0
   -3.9566  -15.0890   16.0058 H   0  0  0  0  0  0  0  0  0  0  0  0
  1  2  2  0
  2  3  1  0
  3  4  1  0
  4  5  1  0
  5  6  1  0
  6  7  1  0
  7  8  1  0
  8  9  1  0
  9 10  1  0
 10 11  2  0
  2 12  1  0
 12 13  2  0
 13 14  1  0
 14 15  2  0
 15 16  1  0
 16 17  1  0
 17 18  1  0
 18 19  2  0
 19 20  1  0
 20 21  2  0
 16 22  2  0
 10  6  1  0
 22 12  1  0
 21 17  1  0
  3 23  1  0
  4 24  1  0
  4 25  1  0
  5 26  1  0
  5 27  1  0
  7 28  1  0
  7 29  1  0
  8 30  1  0
  8 31  1  0
  9 32  1  0
  9 33  1  0
 13 34  1  0
 15 35  1  0
 18 36  1  0
 19 37  1  0
 21 38  1  0
M  END
>  <Energy>  (302) 
107.92778052096398

>  <compound_id>  (302) 
68680

>  <target_id>  (302) 
1

>  <reference_id>  (302) 
98

>  <inspiration_ids>  (302) 
[101, 98]

>  <energy_score>  (302) 
-31.32333955978845

>  <distance_score>  (302) 
15.073177378033876

>  <path>  (302) 
/opt/xchem-fragalysis-2/maxwin/BulkDock/SCRATCH/511024/C68680-P98/C68680-P98.minimised.mol

>  <scratch_subdir>  (302) 
/opt/xchem-fragalysis-2/maxwin/BulkDock/SCRATCH/511024/C68680-P98

>  <fragmenstein_runtime>  (302) 
22.037657260894775

>  <fragmenstein_outcome>  (302) 
too moved

>  <fragmenstein_mode>  (302) 
expansion

>  <fragmenstein_error>  (302) 


$$$$
C68684-P101
     RDKit          3D

 47 48  0  0  0  0  0  0  0  0999 V2000
    1.2526  -14.2874   17.8152 C   0  0  0  0  0  0  0  0  0  0  0  0
    1.6796  -15.6789   18.7551 C   0  0  0  0  0  0  0  0  0  0  0  0
    3.5181  -15.0993   18.4381 C   0  0  0  0  0  0  0  0  0  0  0  0
    4.2402  -13.4856   18.7099 C   0  0  0  0  0  0  0  0  0  0  0  0
    5.5962  -13.0358   18.4034 N   0  0  0  0  0  0  0  0  0  0  0  0
    6.6529  -12.5431   19.2662 C   0  0  0  0  0  0  0  0  0  0  0  0
    6.6731  -12.3578   20.4516 O   0  0  0  0  0  0  0  0  0  0  0  0
    8.0069  -12.3237   18.5276 C   0  0  0  0  0  0  0  0  0  0  0  0
    9.0652  -11.6189   19.3998 C   0  0  0  0  0  0  0  0  0  0  0  0
   10.2804  -11.5679   18.4895 C   0  0  0  0  0  0  0  0  0  0  0  0
    9.6176  -11.2819   17.1632 C   0  0  0  0  0  0  0  0  0  0  0  0
   10.2430  -10.9123   16.1776 O   0  0  0  0  0  0  0  0  0  0  0  0
    8.1205  -11.5797   17.2024 C   0  0  0  0  0  0  0  0  0  0  0  0
    0.6509  -17.4784   19.2535 N   0  0  0  0  0  0  0  0  0  0  0  0
    1.5633  -17.7146   18.0049 C   0  0  0  0  0  0  0  0  0  0  0  0
    0.5521  -18.4437   20.9536 C   0  0  0  0  0  0  0  0  0  0  0  0
    1.4330  -19.3322   21.1426 O   0  0  0  0  0  0  0  0  0  0  0  0
   -0.5874  -18.5543   22.2058 C   0  0  0  0  0  0  0  0  0  0  0  0
   -1.7886  -19.7939   22.6965 C   0  0  0  0  0  0  0  0  0  0  0  0
   -1.7108  -21.0959   23.3143 N   0  0  0  0  0  0  0  0  0  0  0  0
   -2.6432  -22.2114   23.1770 C   0  0  0  0  0  0  0  0  0  0  0  0
   -0.3881  -21.1993   23.3465 C   0  0  0  0  0  0  0  0  0  0  0  0
    0.1641  -19.7660   23.4349 N   0  0  0  0  0  0  0  0  0  0  0  0
    0.3659  -13.6957   18.0176 H   0  0  0  0  0  0  0  0  0  0  0  0
    1.2076  -14.3359   16.7603 H   0  0  0  0  0  0  0  0  0  0  0  0
    2.0878  -13.7309   18.0335 H   0  0  0  0  0  0  0  0  0  0  0  0
    2.3475  -16.1305   17.9790 H   0  0  0  0  0  0  0  0  0  0  0  0
    3.6296  -15.2033   17.3717 H   0  0  0  0  0  0  0  0  0  0  0  0
    4.2665  -15.8537   18.6712 H   0  0  0  0  0  0  0  0  0  0  0  0
    4.1527  -13.1988   19.7590 H   0  0  0  0  0  0  0  0  0  0  0  0
    3.7097  -12.7704   18.1013 H   0  0  0  0  0  0  0  0  0  0  0  0
    5.9012  -12.9826   17.4473 H   0  0  0  0  0  0  0  0  0  0  0  0
    8.4072  -13.3362   18.3816 H   0  0  0  0  0  0  0  0  0  0  0  0
    8.7302  -10.6113   19.6770 H   0  0  0  0  0  0  0  0  0  0  0  0
    9.2827  -12.1698   20.3208 H   0  0  0  0  0  0  0  0  0  0  0  0
   10.7723  -12.5441   18.4298 H   0  0  0  0  0  0  0  0  0  0  0  0
   10.9989  -10.8154   18.8041 H   0  0  0  0  0  0  0  0  0  0  0  0
    7.8397  -12.2124   16.3569 H   0  0  0  0  0  0  0  0  0  0  0  0
    7.5275  -10.6705   17.2079 H   0  0  0  0  0  0  0  0  0  0  0  0
    1.7645  -17.4748   16.9303 H   0  0  0  0  0  0  0  0  0  0  0  0
    1.9888  -18.7318   18.1125 H   0  0  0  0  0  0  0  0  0  0  0  0
    0.7480  -18.3582   17.6384 H   0  0  0  0  0  0  0  0  0  0  0  0
   -2.5288  -20.3213   22.1201 H   0  0  0  0  0  0  0  0  0  0  0  0
   -2.2515  -23.0704   23.7257 H   0  0  0  0  0  0  0  0  0  0  0  0
   -3.6163  -21.8944   23.5573 H   0  0  0  0  0  0  0  0  0  0  0  0
   -2.7373  -22.4910   22.1240 H   0  0  0  0  0  0  0  0  0  0  0  0
    0.0451  -22.1784   23.3575 H   0  0  0  0  0  0  0  0  0  0  0  0
  1  2  1  0
  2  3  1  0
  3  4  1  0
  4  5  1  0
  5  6  1  0
  6  7  2  0
  6  8  1  0
  8  9  1  0
  9 10  1  0
 10 11  1  0
 11 12  2  0
 11 13  1  0
  2 14  1  0
 14 15  1  0
 14 16  1  0
 16 17  2  0
 16 18  1  0
 18 19  2  0
 19 20  1  0
 20 21  1  0
 20 22  1  0
 22 23  2  0
 13  8  1  0
 23 18  1  0
  1 24  1  0
  1 25  1  0
  1 26  1  0
  2 27  1  0
  3 28  1  0
  3 29  1  0
  4 30  1  0
  4 31  1  0
  5 32  1  0
  8 33  1  0
  9 34  1  0
  9 35  1  0
 10 36  1  0
 10 37  1  0
 13 38  1  0
 13 39  1  0
 15 40  1  0
 15 41  1  0
 15 42  1  0
 19 43  1  0
 21 44  1  0
 21 45  1  0
 21 46  1  0
 22 47  1  0
M  END
>  <Energy>  (303) 
937.20048392277101

>  <compound_id>  (303) 
68684

>  <target_id>  (303) 
1

>  <reference_id>  (303) 
101

>  <inspiration_ids>  (303) 
[101, 98]

>  <energy_score>  (303) 
869.2274672150778

>  <distance_score>  (303) 
12.108862551039644

>  <path>  (303) 
/opt/xchem-fragalysis-2/maxwin/BulkDock/SCRATCH/511024/C68684-P101/C68684-P101.minimised.mol

>  <scratch_subdir>  (303) 
/opt/xchem-fragalysis-2/maxwin/BulkDock/SCRATCH/511024/C68684-P101

>  <fragmenstein_runtime>  (303) 
33.9167263507843

>  <fragmenstein_outcome>  (303) 
too moved

>  <fragmenstein_mode>  (303) 
expansion

>  <fragmenstein_error>  (303) 


$$$$
C68684-P98
     RDKit          3D

 47 48  0  0  0  0  0  0  0  0999 V2000
    0.8897  -19.6250   13.0286 C   0  0  0  0  0  0  0  0  0  0  0  0
    2.1715  -19.8253   13.8649 C   0  0  0  0  0  0  0  0  0  0  0  0
    2.8639  -18.3303   14.0248 C   0  0  0  0  0  0  0  0  0  0  0  0
    4.3378  -18.1702   13.4921 C   0  0  0  0  0  0  0  0  0  0  0  0
    5.1364  -16.9779   13.9202 N   0  0  0  0  0  0  0  0  0  0  0  0
    5.9303  -16.0212   13.1374 C   0  0  0  0  0  0  0  0  0  0  0  0
    6.0714  -15.9102   11.9518 O   0  0  0  0  0  0  0  0  0  0  0  0
    6.8034  -15.0632   14.0522 C   0  0  0  0  0  0  0  0  0  0  0  0
    8.2772  -15.5047   14.1308 C   0  0  0  0  0  0  0  0  0  0  0  0
    9.0707  -14.3010   14.6457 C   0  0  0  0  0  0  0  0  0  0  0  0
    8.3179  -13.1590   14.0331 C   0  0  0  0  0  0  0  0  0  0  0  0
    8.7745  -12.0247   13.9526 O   0  0  0  0  0  0  0  0  0  0  0  0
    6.9419  -13.5970   13.5459 C   0  0  0  0  0  0  0  0  0  0  0  0
    1.8777  -20.6936   15.2516 N   0  0  0  0  0  0  0  0  0  0  0  0
    3.3385  -20.6470   15.3269 C   0  0  0  0  0  0  0  0  0  0  0  0
    0.9782  -21.8080   14.9791 C   0  0  0  0  0  0  0  0  0  0  0  0
    1.2202  -22.9431   14.6600 O   0  0  0  0  0  0  0  0  0  0  0  0
   -0.5145  -21.5844   15.2309 C   0  0  0  0  0  0  0  0  0  0  0  0
   -1.3299  -20.4710   15.3470 C   0  0  0  0  0  0  0  0  0  0  0  0
   -2.5844  -20.9205   15.7059 N   0  0  0  0  0  0  0  0  0  0  0  0
   -3.7681  -20.1157   15.8716 C   0  0  0  0  0  0  0  0  0  0  0  0
   -2.5206  -22.2672   15.8764 C   0  0  0  0  0  0  0  0  0  0  0  0
   -1.3103  -22.6994   15.6138 N   0  0  0  0  0  0  0  0  0  0  0  0
    1.1294  -19.1151   12.0879 H   0  0  0  0  0  0  0  0  0  0  0  0
    0.4285  -20.5771   12.7517 H   0  0  0  0  0  0  0  0  0  0  0  0
    0.1559  -19.0137   13.5487 H   0  0  0  0  0  0  0  0  0  0  0  0
    2.7823  -20.4385   13.1793 H   0  0  0  0  0  0  0  0  0  0  0  0
    2.2731  -17.6192   13.4366 H   0  0  0  0  0  0  0  0  0  0  0  0
    2.7806  -17.9908   15.0624 H   0  0  0  0  0  0  0  0  0  0  0  0
    4.3203  -18.1657   12.3966 H   0  0  0  0  0  0  0  0  0  0  0  0
    4.9407  -19.0304   13.7969 H   0  0  0  0  0  0  0  0  0  0  0  0
    5.3167  -16.8309   14.9034 H   0  0  0  0  0  0  0  0  0  0  0  0
    6.4080  -15.0542   15.0643 H   0  0  0  0  0  0  0  0  0  0  0  0
    8.6392  -15.7936   13.1356 H   0  0  0  0  0  0  0  0  0  0  0  0
    8.4022  -16.3757   14.7826 H   0  0  0  0  0  0  0  0  0  0  0  0
   10.1079  -14.3260   14.3053 H   0  0  0  0  0  0  0  0  0  0  0  0
    9.0182  -14.2226   15.7347 H   0  0  0  0  0  0  0  0  0  0  0  0
    6.9162  -13.5336   12.4546 H   0  0  0  0  0  0  0  0  0  0  0  0
    6.1674  -12.9591   13.9784 H   0  0  0  0  0  0  0  0  0  0  0  0
    3.7625  -19.6996   15.6287 H   0  0  0  0  0  0  0  0  0  0  0  0
    3.8851  -21.1945   14.5467 H   0  0  0  0  0  0  0  0  0  0  0  0
    3.5467  -21.2806   16.2033 H   0  0  0  0  0  0  0  0  0  0  0  0
   -1.1390  -19.4245   15.1960 H   0  0  0  0  0  0  0  0  0  0  0  0
   -4.6532  -20.7372   15.7126 H   0  0  0  0  0  0  0  0  0  0  0  0
   -3.7533  -19.3078   15.1359 H   0  0  0  0  0  0  0  0  0  0  0  0
   -3.7668  -19.7125   16.8871 H   0  0  0  0  0  0  0  0  0  0  0  0
   -3.3609  -22.8782   16.1804 H   0  0  0  0  0  0  0  0  0  0  0  0
  1  2  1  0
  2  3  1  0
  3  4  1  0
  4  5  1  0
  5  6  1  0
  6  7  2  0
  6  8  1  0
  8  9  1  0
  9 10  1  0
 10 11  1  0
 11 12  2  0
 11 13  1  0
  2 14  1  0
 14 15  1  0
 14 16  1  0
 16 17  2  0
 16 18  1  0
 18 19  2  0
 19 20  1  0
 20 21  1  0
 20 22  1  0
 22 23  2  0
 13  8  1  0
 23 18  1  0
  1 24  1  0
  1 25  1  0
  1 26  1  0
  2 27  1  0
  3 28  1  0
  3 29  1  0
  4 30  1  0
  4 31  1  0
  5 32  1  0
  8 33  1  0
  9 34  1  0
  9 35  1  0
 10 36  1  0
 10 37  1  0
 13 38  1  0
 13 39  1  0
 15 40  1  0
 15 41  1  0
 15 42  1  0
 19 43  1  0
 21 44  1  0
 21 45  1  0
 21 46  1  0
 22 47  1  0
M  END
>  <Energy>  (304) 
132.88703972004481

>  <compound_id>  (304) 
68684

>  <target_id>  (304) 
1

>  <reference_id>  (304) 
98

>  <inspiration_ids>  (304) 
[101, 98]

>  <energy_score>  (304) 
64.9140230123578

>  <distance_score>  (304) 
15.042104173491683

>  <path>  (304) 
/opt/xchem-fragalysis-2/maxwin/BulkDock/SCRATCH/511024/C68684-P98/C68684-P98.minimised.mol

>  <scratch_subdir>  (304) 
/opt/xchem-fragalysis-2/maxwin/BulkDock/SCRATCH/511024/C68684-P98

>  <fragmenstein_runtime>  (304) 
65.03729200363159

>  <fragmenstein_outcome>  (304) 
too moved

>  <fragmenstein_mode>  (304) 
expansion

>  <fragmenstein_error>  (304) 


$$$$
C53481-P101
     RDKit          3D

 46 47  0  0  0  0  0  0  0  0999 V2000
   -6.2578  -18.6978   20.1855 C   0  0  0  0  0  0  0  0  0  0  0  0
   -5.1159  -19.4020   19.4807 C   0  0  0  0  0  0  0  0  0  0  0  0
   -3.9633  -18.5305   19.1676 C   0  0  0  0  0  0  0  0  0  0  0  0
   -3.8958  -17.3608   18.5062 C   0  0  0  0  0  0  0  0  0  0  0  0
   -2.7065  -16.7083   18.8105 N   0  0  0  0  0  0  0  0  0  0  0  0
   -1.9404  -17.5189   19.4987 C   0  0  0  0  0  0  0  0  0  0  0  0
   -0.2989  -17.2884   19.9598 C   0  0  0  0  0  0  0  0  0  0  0  0
    0.7758  -16.1502   20.2181 C   0  0  0  0  0  0  0  0  0  0  0  0
    0.6386  -15.7074   21.3408 O   0  0  0  0  0  0  0  0  0  0  0  0
    1.9358  -15.5070   18.9598 N   0  0  0  0  0  0  0  0  0  0  0  0
    2.8850  -14.5434   19.0388 C   0  0  0  0  0  0  0  0  0  0  0  0
    2.1138  -14.0615   17.9417 C   0  0  0  0  0  0  0  0  0  0  0  0
    4.5223  -14.4505   18.3398 C   0  0  0  0  0  0  0  0  0  0  0  0
    5.9096  -14.2269   18.8333 N   0  0  0  0  0  0  0  0  0  0  0  0
    6.4866  -13.1284   19.5933 C   0  0  0  0  0  0  0  0  0  0  0  0
    5.9745  -12.1639   20.0848 O   0  0  0  0  0  0  0  0  0  0  0  0
    8.0535  -13.2448   19.6486 C   0  0  0  0  0  0  0  0  0  0  0  0
    8.6915  -12.9940   18.2757 C   0  0  0  0  0  0  0  0  0  0  0  0
    9.1150  -11.5246   18.2865 C   0  0  0  0  0  0  0  0  0  0  0  0
    9.3352  -11.2406   19.7473 C   0  0  0  0  0  0  0  0  0  0  0  0
    9.9233  -10.2827   20.2238 O   0  0  0  0  0  0  0  0  0  0  0  0
    8.7437  -12.2611   20.4702 N   0  0  0  0  0  0  0  0  0  0  0  0
   -2.6538  -18.7023   19.5317 N   0  0  0  0  0  0  0  0  0  0  0  0
   -6.0500  -18.2635   21.1602 H   0  0  0  0  0  0  0  0  0  0  0  0
   -7.0985  -19.3741   20.3058 H   0  0  0  0  0  0  0  0  0  0  0  0
   -6.5493  -17.8614   19.5496 H   0  0  0  0  0  0  0  0  0  0  0  0
   -5.5128  -19.7028   18.5170 H   0  0  0  0  0  0  0  0  0  0  0  0
   -4.7885  -20.2684   20.0486 H   0  0  0  0  0  0  0  0  0  0  0  0
   -4.6369  -16.8828   17.8909 H   0  0  0  0  0  0  0  0  0  0  0  0
    0.2183  -17.7317   19.1103 H   0  0  0  0  0  0  0  0  0  0  0  0
   -0.8979  -16.3675   20.0736 H   0  0  0  0  0  0  0  0  0  0  0  0
    1.9235  -16.0742   18.1962 H   0  0  0  0  0  0  0  0  0  0  0  0
    2.7517  -14.2250   20.0737 H   0  0  0  0  0  0  0  0  0  0  0  0
    1.0512  -13.8041   17.9623 H   0  0  0  0  0  0  0  0  0  0  0  0
    2.7796  -13.1954   17.9329 H   0  0  0  0  0  0  0  0  0  0  0  0
    2.1313  -14.7612   17.0945 H   0  0  0  0  0  0  0  0  0  0  0  0
    4.5414  -13.5218   17.7780 H   0  0  0  0  0  0  0  0  0  0  0  0
    4.6182  -15.3460   17.7361 H   0  0  0  0  0  0  0  0  0  0  0  0
    6.6269  -14.9110   18.6450 H   0  0  0  0  0  0  0  0  0  0  0  0
    8.3017  -14.2379   20.0386 H   0  0  0  0  0  0  0  0  0  0  0  0
    8.0381  -13.2197   17.4276 H   0  0  0  0  0  0  0  0  0  0  0  0
    9.5878  -13.6202   18.1768 H   0  0  0  0  0  0  0  0  0  0  0  0
   10.0300  -11.3725   17.7096 H   0  0  0  0  0  0  0  0  0  0  0  0
    8.3135  -10.8795   17.9165 H   0  0  0  0  0  0  0  0  0  0  0  0
    8.5485  -12.1130   21.4515 H   0  0  0  0  0  0  0  0  0  0  0  0
   -2.2370  -19.5436   19.8817 H   0  0  0  0  0  0  0  0  0  0  0  0
  1  2  1  0
  2  3  1  0
  3  4  2  0
  4  5  1  0
  5  6  2  0
  6  7  1  0
  7  8  1  0
  8  9  2  0
  8 10  1  0
 10 11  1  0
 11 12  1  0
 11 13  1  0
 13 14  1  0
 14 15  1  0
 15 16  2  0
 15 17  1  0
 17 18  1  0
 18 19  1  0
 19 20  1  0
 20 21  2  0
 20 22  1  0
  6 23  1  0
 23  3  1  0
 22 17  1  0
  1 24  1  0
  1 25  1  0
  1 26  1  0
  2 27  1  0
  2 28  1  0
  4 29  1  0
  7 30  1  0
  7 31  1  0
 10 32  1  0
 11 33  1  0
 12 34  1  0
 12 35  1  0
 12 36  1  0
 13 37  1  0
 13 38  1  0
 14 39  1  0
 17 40  1  0
 18 41  1  0
 18 42  1  0
 19 43  1  0
 19 44  1  0
 22 45  1  0
 23 46  1  0
M  END
>  <Energy>  (305) 
322.1081101099378

>  <compound_id>  (305) 
53481

>  <target_id>  (305) 
1

>  <reference_id>  (305) 
101

>  <inspiration_ids>  (305) 
[101, 98]

>  <energy_score>  (305) 
271.2876663031772

>  <distance_score>  (305) 
12.347495871357268

>  <path>  (305) 
/opt/xchem-fragalysis-2/maxwin/BulkDock/SCRATCH/511024/C53481-P101/C53481-P101.minimised.mol

>  <scratch_subdir>  (305) 
/opt/xchem-fragalysis-2/maxwin/BulkDock/SCRATCH/511024/C53481-P101

>  <fragmenstein_runtime>  (305) 
30.22101616859436

>  <fragmenstein_outcome>  (305) 
too moved

>  <fragmenstein_mode>  (305) 
expansion

>  <fragmenstein_error>  (305) 


$$$$
C53481-P98
     RDKit          3D

 46 47  0  0  0  0  0  0  0  0999 V2000
  -10.6419  -24.1738   25.4847 C   0  0  0  0  0  0  0  0  0  0  0  0
   -9.7729  -24.1330   24.1319 C   0  0  0  0  0  0  0  0  0  0  0  0
   -8.2807  -23.3530   23.5757 C   0  0  0  0  0  0  0  0  0  0  0  0
   -8.6548  -22.1350   23.1576 C   0  0  0  0  0  0  0  0  0  0  0  0
   -7.4930  -21.1220   22.9976 N   0  0  0  0  0  0  0  0  0  0  0  0
   -6.2095  -21.7041   22.8938 C   0  0  0  0  0  0  0  0  0  0  0  0
   -5.2948  -21.1029   21.1520 C   0  0  0  0  0  0  0  0  0  0  0  0
   -3.8614  -20.2186   20.3487 C   0  0  0  0  0  0  0  0  0  0  0  0
   -2.8670  -20.8435   20.5106 O   0  0  0  0  0  0  0  0  0  0  0  0
   -4.0309  -18.8658   19.7254 N   0  0  0  0  0  0  0  0  0  0  0  0
   -2.8005  -17.6558   19.1211 C   0  0  0  0  0  0  0  0  0  0  0  0
   -3.8118  -17.3134   17.9880 C   0  0  0  0  0  0  0  0  0  0  0  0
   -1.3852  -16.3752   19.7156 C   0  0  0  0  0  0  0  0  0  0  0  0
    0.5563  -16.0385   19.6838 N   0  0  0  0  0  0  0  0  0  0  0  0
    1.7105  -14.9631   18.4414 C   0  0  0  0  0  0  0  0  0  0  0  0
    1.2141  -14.4193   17.4459 O   0  0  0  0  0  0  0  0  0  0  0  0
    3.5740  -14.5641   18.4989 C   0  0  0  0  0  0  0  0  0  0  0  0
    4.3299  -13.0887   18.1828 C   0  0  0  0  0  0  0  0  0  0  0  0
    5.5360  -12.9676   19.0772 C   0  0  0  0  0  0  0  0  0  0  0  0
    6.0748  -14.3263   18.7859 C   0  0  0  0  0  0  0  0  0  0  0  0
    7.2408  -14.6552   18.9596 O   0  0  0  0  0  0  0  0  0  0  0  0
    5.0143  -15.1665   18.3408 N   0  0  0  0  0  0  0  0  0  0  0  0
   -6.7742  -23.3097   23.3606 N   0  0  0  0  0  0  0  0  0  0  0  0
  -11.4659  -23.4520   25.4639 H   0  0  0  0  0  0  0  0  0  0  0  0
  -11.1664  -25.1400   25.5252 H   0  0  0  0  0  0  0  0  0  0  0  0
  -10.0841  -24.0725   26.4207 H   0  0  0  0  0  0  0  0  0  0  0  0
  -10.5168  -23.6482   23.5022 H   0  0  0  0  0  0  0  0  0  0  0  0
   -9.6339  -25.1454   24.0483 H   0  0  0  0  0  0  0  0  0  0  0  0
   -9.6653  -21.7988   22.8793 H   0  0  0  0  0  0  0  0  0  0  0  0
   -5.2681  -22.0458   20.6826 H   0  0  0  0  0  0  0  0  0  0  0  0
   -4.5771  -21.3305   21.8481 H   0  0  0  0  0  0  0  0  0  0  0  0
   -5.0236  -18.6522   19.6657 H   0  0  0  0  0  0  0  0  0  0  0  0
   -3.2813  -17.0473   19.8982 H   0  0  0  0  0  0  0  0  0  0  0  0
   -3.9612  -18.1948   17.3639 H   0  0  0  0  0  0  0  0  0  0  0  0
   -3.7068  -16.4685   17.3336 H   0  0  0  0  0  0  0  0  0  0  0  0
   -4.8123  -17.1714   18.3949 H   0  0  0  0  0  0  0  0  0  0  0  0
   -1.2305  -16.9066   20.6465 H   0  0  0  0  0  0  0  0  0  0  0  0
   -1.8858  -15.4174   19.8002 H   0  0  0  0  0  0  0  0  0  0  0  0
    1.0983  -16.3246   20.4785 H   0  0  0  0  0  0  0  0  0  0  0  0
    3.3153  -13.9972   19.3499 H   0  0  0  0  0  0  0  0  0  0  0  0
    4.8655  -12.9592   17.2425 H   0  0  0  0  0  0  0  0  0  0  0  0
    3.5912  -12.3210   18.1116 H   0  0  0  0  0  0  0  0  0  0  0  0
    5.3013  -12.8536   20.1350 H   0  0  0  0  0  0  0  0  0  0  0  0
    6.2330  -12.1924   18.7480 H   0  0  0  0  0  0  0  0  0  0  0  0
    5.1908  -16.0935   18.6905 H   0  0  0  0  0  0  0  0  0  0  0  0
   -6.0905  -24.0374   23.5133 H   0  0  0  0  0  0  0  0  0  0  0  0
  1  2  1  0
  2  3  1  0
  3  4  2  0
  4  5  1  0
  5  6  2  0
  6  7  1  0
  7  8  1  0
  8  9  2  0
  8 10  1  0
 10 11  1  0
 11 12  1  0
 11 13  1  0
 13 14  1  0
 14 15  1  0
 15 16  2  0
 15 17  1  0
 17 18  1  0
 18 19  1  0
 19 20  1  0
 20 21  2  0
 20 22  1  0
  6 23  1  0
 23  3  1  0
 22 17  1  0
  1 24  1  0
  1 25  1  0
  1 26  1  0
  2 27  1  0
  2 28  1  0
  4 29  1  0
  7 30  1  0
  7 31  1  0
 10 32  1  0
 11 33  1  0
 12 34  1  0
 12 35  1  0
 12 36  1  0
 13 37  1  0
 13 38  1  0
 14 39  1  0
 17 40  1  0
 18 41  1  0
 18 42  1  0
 19 43  1  0
 19 44  1  0
 22 45  1  0
 23 46  1  0
M  END
>  <Energy>  (306) 
881.54508889396925

>  <compound_id>  (306) 
53481

>  <target_id>  (306) 
1

>  <reference_id>  (306) 
98

>  <inspiration_ids>  (306) 
[101, 98]

>  <energy_score>  (306) 
830.7246450872086

>  <distance_score>  (306) 
11.340850882985645

>  <path>  (306) 
/opt/xchem-fragalysis-2/maxwin/BulkDock/SCRATCH/511024/C53481-P98/C53481-P98.minimised.mol

>  <scratch_subdir>  (306) 
/opt/xchem-fragalysis-2/maxwin/BulkDock/SCRATCH/511024/C53481-P98

>  <fragmenstein_runtime>  (306) 
53.74069571495056

>  <fragmenstein_outcome>  (306) 
too moved

>  <fragmenstein_mode>  (306) 
expansion

>  <fragmenstein_error>  (306) 


$$$$
C53482-P101
     RDKit          3D

 46 47  0  0  0  0  0  0  0  0999 V2000
   -0.3794  -14.2865   22.7950 C   0  0  0  0  0  0  0  0  0  0  0  0
   -0.3912  -14.3723   24.2620 C   0  0  0  0  0  0  0  0  0  0  0  0
    1.5317  -13.3485   24.3557 C   0  0  0  0  0  0  0  0  0  0  0  0
    2.8338  -12.4231   23.2918 N   0  0  0  0  0  0  0  0  0  0  0  0
    4.0943  -11.2387   23.7250 C   0  0  0  0  0  0  0  0  0  0  0  0
    4.3366  -10.7070   24.7910 O   0  0  0  0  0  0  0  0  0  0  0  0
    5.0668  -10.6013   22.5714 C   0  0  0  0  0  0  0  0  0  0  0  0
    4.7695   -9.0290   22.5584 C   0  0  0  0  0  0  0  0  0  0  0  0
    5.6189   -8.2099   21.5763 C   0  0  0  0  0  0  0  0  0  0  0  0
    6.9548   -8.6964   21.3917 N   0  0  0  0  0  0  0  0  0  0  0  0
    7.5174   -9.7263   22.0741 C   0  0  0  0  0  0  0  0  0  0  0  0
    8.7222   -9.9422   21.9463 O   0  0  0  0  0  0  0  0  0  0  0  0
    6.6092  -10.5067   23.0321 C   0  0  0  0  0  0  0  0  0  0  0  0
   -1.8263  -15.8916   24.5767 N   0  0  0  0  0  0  0  0  0  0  0  0
   -1.7219  -17.7117   25.5086 C   0  0  0  0  0  0  0  0  0  0  0  0
   -0.6617  -17.9421   26.0688 O   0  0  0  0  0  0  0  0  0  0  0  0
   -2.7397  -19.2099   25.6157 C   0  0  0  0  0  0  0  0  0  0  0  0
   -4.4999  -20.2389   25.4988 C   0  0  0  0  0  0  0  0  0  0  0  0
   -5.5057  -19.5618   25.9478 N   0  0  0  0  0  0  0  0  0  0  0  0
   -5.8601  -20.0476   27.0632 C   0  0  0  0  0  0  0  0  0  0  0  0
   -5.6010  -21.4300   27.4918 C   0  0  0  0  0  0  0  0  0  0  0  0
   -5.0663  -21.6488   26.2668 N   0  0  0  0  0  0  0  0  0  0  0  0
   -5.9456  -23.1317   26.0982 C   0  0  0  0  0  0  0  0  0  0  0  0
   -1.2212  -14.7525   22.3609 H   0  0  0  0  0  0  0  0  0  0  0  0
    0.3749  -14.8124   22.2413 H   0  0  0  0  0  0  0  0  0  0  0  0
   -0.2239  -13.2436   22.6823 H   0  0  0  0  0  0  0  0  0  0  0  0
    0.4042  -14.8873   24.5863 H   0  0  0  0  0  0  0  0  0  0  0  0
    2.1080  -14.1013   23.7151 H   0  0  0  0  0  0  0  0  0  0  0  0
    1.7222  -13.1977   25.4129 H   0  0  0  0  0  0  0  0  0  0  0  0
    2.9510  -12.7306   22.3548 H   0  0  0  0  0  0  0  0  0  0  0  0
    5.1183  -11.1528   21.6393 H   0  0  0  0  0  0  0  0  0  0  0  0
    3.7063   -8.8200   22.3906 H   0  0  0  0  0  0  0  0  0  0  0  0
    4.9591   -8.6265   23.5645 H   0  0  0  0  0  0  0  0  0  0  0  0
    5.1586   -8.1722   20.5842 H   0  0  0  0  0  0  0  0  0  0  0  0
    5.6905   -7.1733   21.9238 H   0  0  0  0  0  0  0  0  0  0  0  0
    7.5904   -8.1816   20.7804 H   0  0  0  0  0  0  0  0  0  0  0  0
    6.6884  -10.0326   24.0188 H   0  0  0  0  0  0  0  0  0  0  0  0
    7.0586  -11.4972   23.1446 H   0  0  0  0  0  0  0  0  0  0  0  0
   -2.7712  -15.7658   24.2200 H   0  0  0  0  0  0  0  0  0  0  0  0
   -2.0904  -19.8276   26.2199 H   0  0  0  0  0  0  0  0  0  0  0  0
   -2.7105  -18.6983   26.6211 H   0  0  0  0  0  0  0  0  0  0  0  0
   -6.9283  -19.9019   27.2725 H   0  0  0  0  0  0  0  0  0  0  0  0
   -6.2795  -22.1206   27.9585 H   0  0  0  0  0  0  0  0  0  0  0  0
   -5.3081  -23.5817   26.8449 H   0  0  0  0  0  0  0  0  0  0  0  0
   -6.9518  -23.0146   26.5086 H   0  0  0  0  0  0  0  0  0  0  0  0
   -5.8871  -23.5367   25.0653 H   0  0  0  0  0  0  0  0  0  0  0  0
  1  2  1  0
  2  3  1  0
  3  4  1  0
  4  5  1  0
  5  6  2  0
  5  7  1  0
  7  8  1  0
  8  9  1  0
  9 10  1  0
 10 11  1  0
 11 12  2  0
 11 13  1  0
  2 14  1  0
 14 15  1  0
 15 16  2  0
 15 17  1  0
 17 18  1  0
 18 19  2  0
 19 20  1  0
 20 21  2  0
 21 22  1  0
 22 23  1  0
 13  7  1  0
 22 18  1  0
  1 24  1  0
  1 25  1  0
  1 26  1  0
  2 27  1  0
  3 28  1  0
  3 29  1  0
  4 30  1  0
  7 31  1  0
  8 32  1  0
  8 33  1  0
  9 34  1  0
  9 35  1  0
 10 36  1  0
 13 37  1  0
 13 38  1  0
 14 39  1  0
 17 40  1  0
 17 41  1  0
 20 42  1  0
 21 43  1  0
 23 44  1  0
 23 45  1  0
 23 46  1  0
M  END
>  <Energy>  (307) 
1033.8274066731606

>  <compound_id>  (307) 
53482

>  <target_id>  (307) 
1

>  <reference_id>  (307) 
101

>  <inspiration_ids>  (307) 
[101, 98]

>  <energy_score>  (307) 
1024.3551095034695

>  <distance_score>  (307) 
11.209242264195927

>  <path>  (307) 
/opt/xchem-fragalysis-2/maxwin/BulkDock/SCRATCH/511024/C53482-P101/C53482-P101.minimised.mol

>  <scratch_subdir>  (307) 
/opt/xchem-fragalysis-2/maxwin/BulkDock/SCRATCH/511024/C53482-P101

>  <fragmenstein_runtime>  (307) 
32.37927579879761

>  <fragmenstein_outcome>  (307) 
too moved

>  <fragmenstein_mode>  (307) 
expansion

>  <fragmenstein_error>  (307) 


$$$$
C53482-P98
     RDKit          3D

 46 47  0  0  0  0  0  0  0  0999 V2000
   -2.1171  -15.8595   19.4114 C   0  0  0  0  0  0  0  0  0  0  0  0
   -1.2973  -16.8881   19.9725 C   0  0  0  0  0  0  0  0  0  0  0  0
    0.3528  -16.2419   20.5954 C   0  0  0  0  0  0  0  0  0  0  0  0
    1.9192  -15.0819   20.2709 N   0  0  0  0  0  0  0  0  0  0  0  0
    2.7792  -14.7179   18.8129 C   0  0  0  0  0  0  0  0  0  0  0  0
    2.4664  -15.0843   17.7201 O   0  0  0  0  0  0  0  0  0  0  0  0
    4.5197  -13.7677   18.7267 C   0  0  0  0  0  0  0  0  0  0  0  0
    5.9289  -14.0112   19.4857 C   0  0  0  0  0  0  0  0  0  0  0  0
    7.2001  -13.4885   18.8011 C   0  0  0  0  0  0  0  0  0  0  0  0
    7.1709  -12.0670   18.7373 N   0  0  0  0  0  0  0  0  0  0  0  0
    6.0721  -11.4499   18.2350 C   0  0  0  0  0  0  0  0  0  0  0  0
    6.0951  -10.2367   18.0342 O   0  0  0  0  0  0  0  0  0  0  0  0
    4.8889  -12.3891   17.8571 C   0  0  0  0  0  0  0  0  0  0  0  0
   -2.3021  -18.0765   20.0311 N   0  0  0  0  0  0  0  0  0  0  0  0
   -3.6928  -18.2734   19.3451 C   0  0  0  0  0  0  0  0  0  0  0  0
   -4.3496  -17.5125   18.6730 O   0  0  0  0  0  0  0  0  0  0  0  0
   -4.3440  -19.6782   19.6497 C   0  0  0  0  0  0  0  0  0  0  0  0
   -5.7575  -20.1076   20.0791 C   0  0  0  0  0  0  0  0  0  0  0  0
   -6.0554  -21.4046   20.1996 N   0  0  0  0  0  0  0  0  0  0  0  0
   -7.2938  -21.4940   20.7810 C   0  0  0  0  0  0  0  0  0  0  0  0
   -7.8048  -20.2409   20.9755 C   0  0  0  0  0  0  0  0  0  0  0  0
   -6.8522  -19.3821   20.4822 N   0  0  0  0  0  0  0  0  0  0  0  0
   -7.0369  -17.9656   20.3889 C   0  0  0  0  0  0  0  0  0  0  0  0
   -1.6660  -14.9677   19.0470 H   0  0  0  0  0  0  0  0  0  0  0  0
   -2.5434  -16.3072   18.5255 H   0  0  0  0  0  0  0  0  0  0  0  0
   -2.8398  -15.6361   20.1705 H   0  0  0  0  0  0  0  0  0  0  0  0
   -0.7738  -17.6196   19.3818 H   0  0  0  0  0  0  0  0  0  0  0  0
    0.0281  -15.8838   21.5640 H   0  0  0  0  0  0  0  0  0  0  0  0
    0.6109  -17.2310   20.8826 H   0  0  0  0  0  0  0  0  0  0  0  0
    2.3496  -14.5785   21.0444 H   0  0  0  0  0  0  0  0  0  0  0  0
    4.7978  -14.4869   17.9184 H   0  0  0  0  0  0  0  0  0  0  0  0
    5.8666  -13.5310   20.4634 H   0  0  0  0  0  0  0  0  0  0  0  0
    6.1117  -15.0858   19.5995 H   0  0  0  0  0  0  0  0  0  0  0  0
    8.0849  -13.7760   19.3778 H   0  0  0  0  0  0  0  0  0  0  0  0
    7.2996  -13.8927   17.7879 H   0  0  0  0  0  0  0  0  0  0  0  0
    8.0070  -11.4988   18.8141 H   0  0  0  0  0  0  0  0  0  0  0  0
    4.0096  -11.7531   17.7284 H   0  0  0  0  0  0  0  0  0  0  0  0
    5.2018  -12.7168   16.8530 H   0  0  0  0  0  0  0  0  0  0  0  0
   -2.0064  -18.9428   20.4417 H   0  0  0  0  0  0  0  0  0  0  0  0
   -3.6565  -20.2908   20.2203 H   0  0  0  0  0  0  0  0  0  0  0  0
   -4.3662  -20.0920   18.6831 H   0  0  0  0  0  0  0  0  0  0  0  0
   -7.7508  -22.4487   21.0102 H   0  0  0  0  0  0  0  0  0  0  0  0
   -8.7429  -19.8944   21.3838 H   0  0  0  0  0  0  0  0  0  0  0  0
   -6.0950  -17.4887   20.6266 H   0  0  0  0  0  0  0  0  0  0  0  0
   -7.8062  -17.6474   21.0958 H   0  0  0  0  0  0  0  0  0  0  0  0
   -7.3513  -17.7364   19.3693 H   0  0  0  0  0  0  0  0  0  0  0  0
  1  2  1  0
  2  3  1  0
  3  4  1  0
  4  5  1  0
  5  6  2  0
  5  7  1  0
  7  8  1  0
  8  9  1  0
  9 10  1  0
 10 11  1  0
 11 12  2  0
 11 13  1  0
  2 14  1  0
 14 15  1  0
 15 16  2  0
 15 17  1  0
 17 18  1  0
 18 19  2  0
 19 20  1  0
 20 21  2  0
 21 22  1  0
 22 23  1  0
 13  7  1  0
 22 18  1  0
  1 24  1  0
  1 25  1  0
  1 26  1  0
  2 27  1  0
  3 28  1  0
  3 29  1  0
  4 30  1  0
  7 31  1  0
  8 32  1  0
  8 33  1  0
  9 34  1  0
  9 35  1  0
 10 36  1  0
 13 37  1  0
 13 38  1  0
 14 39  1  0
 17 40  1  0
 17 41  1  0
 20 42  1  0
 21 43  1  0
 23 44  1  0
 23 45  1  0
 23 46  1  0
M  END
>  <Energy>  (308) 
349.41450817991841

>  <compound_id>  (308) 
53482

>  <target_id>  (308) 
1

>  <reference_id>  (308) 
98

>  <inspiration_ids>  (308) 
[101, 98]

>  <energy_score>  (308) 
339.9422110102241

>  <distance_score>  (308) 
12.602349369114162

>  <path>  (308) 
/opt/xchem-fragalysis-2/maxwin/BulkDock/SCRATCH/511024/C53482-P98/C53482-P98.minimised.mol

>  <scratch_subdir>  (308) 
/opt/xchem-fragalysis-2/maxwin/BulkDock/SCRATCH/511024/C53482-P98

>  <fragmenstein_runtime>  (308) 
40.27675724029541

>  <fragmenstein_outcome>  (308) 
too moved

>  <fragmenstein_mode>  (308) 
expansion

>  <fragmenstein_error>  (308) 


$$$$
C53483-P101
     RDKit          3D

 43 44  0  0  0  0  0  0  0  0999 V2000
    0.5210   -6.6016   20.2824 C   0  0  0  0  0  0  0  0  0  0  0  0
    0.9348   -7.8935   20.9772 C   0  0  0  0  0  0  0  0  0  0  0  0
    2.8581   -7.9030   20.9194 C   0  0  0  0  0  0  0  0  0  0  0  0
    4.2752   -7.1805   20.0458 N   0  0  0  0  0  0  0  0  0  0  0  0
    5.8962   -7.6938   19.9476 C   0  0  0  0  0  0  0  0  0  0  0  0
    6.4017   -8.7127   20.3861 O   0  0  0  0  0  0  0  0  0  0  0  0
    7.1897   -6.4883   19.1753 C   0  0  0  0  0  0  0  0  0  0  0  0
    9.3828   -6.2249   19.2131 C   0  0  0  0  0  0  0  0  0  0  0  0
    8.7801   -4.5664   20.1284 N   0  0  0  0  0  0  0  0  0  0  0  0
    7.4627   -4.4548   20.9772 C   0  0  0  0  0  0  0  0  0  0  0  0
    7.2563   -3.6788   21.8967 O   0  0  0  0  0  0  0  0  0  0  0  0
    6.4776   -5.3573   20.2807 C   0  0  0  0  0  0  0  0  0  0  0  0
   -0.1920   -9.0925   20.4228 N   0  0  0  0  0  0  0  0  0  0  0  0
   -0.7662  -10.5180   21.1525 C   0  0  0  0  0  0  0  0  0  0  0  0
   -0.5070  -10.8394   22.2564 O   0  0  0  0  0  0  0  0  0  0  0  0
   -1.8174  -11.9809   20.2383 C   0  0  0  0  0  0  0  0  0  0  0  0
   -1.9652  -13.9925   20.3515 C   0  0  0  0  0  0  0  0  0  0  0  0
   -2.5282  -14.8632   21.0796 N   0  0  0  0  0  0  0  0  0  0  0  0
   -3.0357  -16.0757   20.4711 C   0  0  0  0  0  0  0  0  0  0  0  0
   -2.5155  -16.3803   19.3082 C   0  0  0  0  0  0  0  0  0  0  0  0
   -1.4793  -15.4897   19.5386 N   0  0  0  0  0  0  0  0  0  0  0  0
   -0.4510  -16.5553   20.3677 C   0  0  0  0  0  0  0  0  0  0  0  0
    0.7189   -6.6672   19.2079 H   0  0  0  0  0  0  0  0  0  0  0  0
    1.0720   -5.7458   20.6835 H   0  0  0  0  0  0  0  0  0  0  0  0
   -0.5488   -6.4125   20.4166 H   0  0  0  0  0  0  0  0  0  0  0  0
    0.7203   -7.8586   22.0515 H   0  0  0  0  0  0  0  0  0  0  0  0
    3.2160   -8.6995   21.5638 H   0  0  0  0  0  0  0  0  0  0  0  0
    2.9094   -7.0802   21.6576 H   0  0  0  0  0  0  0  0  0  0  0  0
    4.1894   -6.2517   19.6556 H   0  0  0  0  0  0  0  0  0  0  0  0
    6.7683   -6.3165   18.1693 H   0  0  0  0  0  0  0  0  0  0  0  0
    9.6522   -7.3743   19.8087 H   0  0  0  0  0  0  0  0  0  0  0  0
   10.2101   -5.6397   18.7928 H   0  0  0  0  0  0  0  0  0  0  0  0
    9.5422   -4.0528   20.5296 H   0  0  0  0  0  0  0  0  0  0  0  0
    5.6855   -4.7923   19.8015 H   0  0  0  0  0  0  0  0  0  0  0  0
    6.0264   -5.8690   21.1409 H   0  0  0  0  0  0  0  0  0  0  0  0
   -0.4796   -9.0835   19.4556 H   0  0  0  0  0  0  0  0  0  0  0  0
   -2.8546  -11.6923   20.4497 H   0  0  0  0  0  0  0  0  0  0  0  0
   -1.6916  -11.8330   19.1568 H   0  0  0  0  0  0  0  0  0  0  0  0
   -3.7640  -16.5660   21.0611 H   0  0  0  0  0  0  0  0  0  0  0  0
   -2.5116  -17.3917   18.9240 H   0  0  0  0  0  0  0  0  0  0  0  0
    0.4979  -16.4950   19.8783 H   0  0  0  0  0  0  0  0  0  0  0  0
   -0.3499  -16.2528   21.3903 H   0  0  0  0  0  0  0  0  0  0  0  0
   -0.9232  -17.5234   20.3169 H   0  0  0  0  0  0  0  0  0  0  0  0
  1  2  1  0
  2  3  1  0
  3  4  1  0
  4  5  1  0
  5  6  2  0
  5  7  1  0
  7  8  1  0
  8  9  1  0
  9 10  1  0
 10 11  2  0
 10 12  1  0
  2 13  1  0
 13 14  1  0
 14 15  2  0
 14 16  1  0
 16 17  1  0
 17 18  2  0
 18 19  1  0
 19 20  2  0
 20 21  1  0
 21 22  1  0
 12  7  1  0
 21 17  1  0
  1 23  1  0
  1 24  1  0
  1 25  1  0
  2 26  1  0
  3 27  1  0
  3 28  1  0
  4 29  1  0
  7 30  1  0
  8 31  1  0
  8 32  1  0
  9 33  1  0
 12 34  1  0
 12 35  1  0
 13 36  1  0
 16 37  1  0
 16 38  1  0
 19 39  1  0
 20 40  1  0
 22 41  1  0
 22 42  1  0
 22 43  1  0
M  END
>  <Energy>  (309) 
812.33444377220451

>  <compound_id>  (309) 
53483

>  <target_id>  (309) 
1

>  <reference_id>  (309) 
101

>  <inspiration_ids>  (309) 
[101, 98]

>  <energy_score>  (309) 
799.5268109964338

>  <distance_score>  (309) 
11.668702789477841

>  <path>  (309) 
/opt/xchem-fragalysis-2/maxwin/BulkDock/SCRATCH/511024/C53483-P101/C53483-P101.minimised.mol

>  <scratch_subdir>  (309) 
/opt/xchem-fragalysis-2/maxwin/BulkDock/SCRATCH/511024/C53483-P101

>  <fragmenstein_runtime>  (309) 
54.95856475830078

>  <fragmenstein_outcome>  (309) 
too moved

>  <fragmenstein_mode>  (309) 
expansion

>  <fragmenstein_error>  (309) 


$$$$
C53483-P98
     RDKit          3D

 43 44  0  0  0  0  0  0  0  0999 V2000
   -1.9005  -12.2773   18.2295 C   0  0  0  0  0  0  0  0  0  0  0  0
   -1.2217  -13.5219   17.4839 C   0  0  0  0  0  0  0  0  0  0  0  0
    0.6701  -13.7196   16.8829 C   0  0  0  0  0  0  0  0  0  0  0  0
    1.6838  -12.4220   15.7764 N   0  0  0  0  0  0  0  0  0  0  0  0
    1.9069  -12.3433   14.2550 C   0  0  0  0  0  0  0  0  0  0  0  0
    1.4493  -13.0122   13.3570 O   0  0  0  0  0  0  0  0  0  0  0  0
    3.0375  -11.2126   13.9210 C   0  0  0  0  0  0  0  0  0  0  0  0
    2.5511   -9.8484   13.4481 C   0  0  0  0  0  0  0  0  0  0  0  0
    3.6586   -8.9429   13.6643 N   0  0  0  0  0  0  0  0  0  0  0  0
    4.5822   -9.4100   14.5710 C   0  0  0  0  0  0  0  0  0  0  0  0
    5.4957   -8.7615   15.0573 O   0  0  0  0  0  0  0  0  0  0  0  0
    4.1708  -10.8222   14.9317 C   0  0  0  0  0  0  0  0  0  0  0  0
   -2.1126  -14.9476   17.6350 N   0  0  0  0  0  0  0  0  0  0  0  0
   -2.3144  -15.9686   18.9389 C   0  0  0  0  0  0  0  0  0  0  0  0
   -1.9267  -15.8499   20.0661 O   0  0  0  0  0  0  0  0  0  0  0  0
   -3.2758  -17.2192   18.5403 C   0  0  0  0  0  0  0  0  0  0  0  0
   -4.4731  -18.0887   19.0306 C   0  0  0  0  0  0  0  0  0  0  0  0
   -4.8065  -19.0444   18.1892 N   0  0  0  0  0  0  0  0  0  0  0  0
   -5.9198  -19.6176   18.6686 C   0  0  0  0  0  0  0  0  0  0  0  0
   -6.2541  -19.2411   19.8804 C   0  0  0  0  0  0  0  0  0  0  0  0
   -5.4864  -18.1630   19.9557 N   0  0  0  0  0  0  0  0  0  0  0  0
   -5.9724  -17.4399   21.0258 C   0  0  0  0  0  0  0  0  0  0  0  0
   -2.9459  -12.2237   17.9635 H   0  0  0  0  0  0  0  0  0  0  0  0
   -1.9487  -12.2605   19.3221 H   0  0  0  0  0  0  0  0  0  0  0  0
   -1.5441  -11.2974   17.9539 H   0  0  0  0  0  0  0  0  0  0  0  0
   -1.7369  -13.4758   16.5420 H   0  0  0  0  0  0  0  0  0  0  0  0
    1.2923  -14.0260   17.7291 H   0  0  0  0  0  0  0  0  0  0  0  0
    0.5895  -14.5553   16.2426 H   0  0  0  0  0  0  0  0  0  0  0  0
    2.1688  -11.6329   16.2340 H   0  0  0  0  0  0  0  0  0  0  0  0
    3.5786  -11.6655   13.0738 H   0  0  0  0  0  0  0  0  0  0  0  0
    1.6924   -9.4789   14.0131 H   0  0  0  0  0  0  0  0  0  0  0  0
    2.2933   -9.8483   12.3850 H   0  0  0  0  0  0  0  0  0  0  0  0
    3.6947   -7.9822   13.3448 H   0  0  0  0  0  0  0  0  0  0  0  0
    5.0245  -11.4996   14.8417 H   0  0  0  0  0  0  0  0  0  0  0  0
    3.8490  -10.7676   15.9727 H   0  0  0  0  0  0  0  0  0  0  0  0
   -2.4982  -15.3863   16.7885 H   0  0  0  0  0  0  0  0  0  0  0  0
   -2.5120  -17.9882   18.4176 H   0  0  0  0  0  0  0  0  0  0  0  0
   -3.7404  -16.9193   17.5951 H   0  0  0  0  0  0  0  0  0  0  0  0
   -6.4719  -20.3920   18.2145 H   0  0  0  0  0  0  0  0  0  0  0  0
   -7.0533  -19.5032   20.5529 H   0  0  0  0  0  0  0  0  0  0  0  0
   -6.2963  -18.0657   21.8721 H   0  0  0  0  0  0  0  0  0  0  0  0
   -6.8565  -16.9163   20.6527 H   0  0  0  0  0  0  0  0  0  0  0  0
   -5.1054  -16.8765   21.3368 H   0  0  0  0  0  0  0  0  0  0  0  0
  1  2  1  0
  2  3  1  0
  3  4  1  0
  4  5  1  0
  5  6  2  0
  5  7  1  0
  7  8  1  0
  8  9  1  0
  9 10  1  0
 10 11  2  0
 10 12  1  0
  2 13  1  0
 13 14  1  0
 14 15  2  0
 14 16  1  0
 16 17  1  0
 17 18  2  0
 18 19  1  0
 19 20  2  0
 20 21  1  0
 21 22  1  0
 12  7  1  0
 21 17  1  0
  1 23  1  0
  1 24  1  0
  1 25  1  0
  2 26  1  0
  3 27  1  0
  3 28  1  0
  4 29  1  0
  7 30  1  0
  8 31  1  0
  8 32  1  0
  9 33  1  0
 12 34  1  0
 12 35  1  0
 13 36  1  0
 16 37  1  0
 16 38  1  0
 19 39  1  0
 20 40  1  0
 22 41  1  0
 22 42  1  0
 22 43  1  0
M  END
>  <Energy>  (310) 
256.68585566326863

>  <compound_id>  (310) 
53483

>  <target_id>  (310) 
1

>  <reference_id>  (310) 
98

>  <inspiration_ids>  (310) 
[101, 98]

>  <energy_score>  (310) 
243.87822288749464

>  <distance_score>  (310) 
12.799289569858367

>  <path>  (310) 
/opt/xchem-fragalysis-2/maxwin/BulkDock/SCRATCH/511024/C53483-P98/C53483-P98.minimised.mol

>  <scratch_subdir>  (310) 
/opt/xchem-fragalysis-2/maxwin/BulkDock/SCRATCH/511024/C53483-P98

>  <fragmenstein_runtime>  (310) 
39.18242073059082

>  <fragmenstein_outcome>  (310) 
too moved

>  <fragmenstein_mode>  (310) 
expansion

>  <fragmenstein_error>  (310) 


$$$$
C53484-P101
     RDKit          3D

 43 44  0  0  0  0  0  0  0  0999 V2000
    1.6871  -12.3777   23.7936 C   0  0  0  0  0  0  0  0  0  0  0  0
   -0.1444  -12.8870   22.9324 C   0  0  0  0  0  0  0  0  0  0  0  0
   -0.6226  -11.0756   22.0835 C   0  0  0  0  0  0  0  0  0  0  0  0
    0.1115   -9.8874   21.5366 N   0  0  0  0  0  0  0  0  0  0  0  0
   -0.3794   -8.6030   21.0510 C   0  0  0  0  0  0  0  0  0  0  0  0
   -1.5058   -8.2029   20.8917 O   0  0  0  0  0  0  0  0  0  0  0  0
    0.7355   -7.4868   20.6676 C   0  0  0  0  0  0  0  0  0  0  0  0
    1.3489   -7.5459   19.2677 C   0  0  0  0  0  0  0  0  0  0  0  0
    2.4187   -6.4419   19.2830 C   0  0  0  0  0  0  0  0  0  0  0  0
    2.8216   -6.3704   20.7396 C   0  0  0  0  0  0  0  0  0  0  0  0
    3.8102   -5.8073   21.1851 O   0  0  0  0  0  0  0  0  0  0  0  0
    1.8869   -7.1163   21.4768 N   0  0  0  0  0  0  0  0  0  0  0  0
   -0.5942  -14.3884   24.1196 N   0  0  0  0  0  0  0  0  0  0  0  0
   -2.1657  -15.4364   24.3302 C   0  0  0  0  0  0  0  0  0  0  0  0
   -3.2094  -15.1898   23.7268 O   0  0  0  0  0  0  0  0  0  0  0  0
   -2.3932  -17.1757   25.3841 C   0  0  0  0  0  0  0  0  0  0  0  0
   -2.3642  -19.0498   25.3776 C   0  0  0  0  0  0  0  0  0  0  0  0
   -2.8990  -19.5630   26.3867 N   0  0  0  0  0  0  0  0  0  0  0  0
   -4.5310  -20.1838   25.8310 C   0  0  0  0  0  0  0  0  0  0  0  0
   -4.3927  -20.6262   24.5993 C   0  0  0  0  0  0  0  0  0  0  0  0
   -3.0186  -20.3715   24.2328 N   0  0  0  0  0  0  0  0  0  0  0  0
   -2.1014  -20.7138   23.2163 C   0  0  0  0  0  0  0  0  0  0  0  0
    2.2360  -13.3096   24.0105 H   0  0  0  0  0  0  0  0  0  0  0  0
    1.6679  -11.9887   24.7852 H   0  0  0  0  0  0  0  0  0  0  0  0
    2.3862  -11.9186   23.1099 H   0  0  0  0  0  0  0  0  0  0  0  0
   -0.1522  -13.7642   22.2756 H   0  0  0  0  0  0  0  0  0  0  0  0
   -1.4025  -11.2913   21.3179 H   0  0  0  0  0  0  0  0  0  0  0  0
   -1.0925  -10.3233   22.6951 H   0  0  0  0  0  0  0  0  0  0  0  0
    1.1172   -9.8450   21.6194 H   0  0  0  0  0  0  0  0  0  0  0  0
    0.1387   -6.5591   20.6953 H   0  0  0  0  0  0  0  0  0  0  0  0
    0.6062   -7.3891   18.4794 H   0  0  0  0  0  0  0  0  0  0  0  0
    1.8217   -8.5132   19.0835 H   0  0  0  0  0  0  0  0  0  0  0  0
    3.2714   -6.7015   18.6512 H   0  0  0  0  0  0  0  0  0  0  0  0
    2.0006   -5.4763   18.9837 H   0  0  0  0  0  0  0  0  0  0  0  0
    1.8643   -7.0375   22.4839 H   0  0  0  0  0  0  0  0  0  0  0  0
    0.1280  -14.7921   24.6105 H   0  0  0  0  0  0  0  0  0  0  0  0
   -2.2648  -17.2008   26.5330 H   0  0  0  0  0  0  0  0  0  0  0  0
   -3.2930  -16.7743   25.6443 H   0  0  0  0  0  0  0  0  0  0  0  0
   -5.3239  -20.0303   26.5480 H   0  0  0  0  0  0  0  0  0  0  0  0
   -5.1736  -21.1378   24.0862 H   0  0  0  0  0  0  0  0  0  0  0  0
   -1.4064  -21.5058   23.4475 H   0  0  0  0  0  0  0  0  0  0  0  0
   -2.7045  -20.8728   22.3604 H   0  0  0  0  0  0  0  0  0  0  0  0
   -1.5345  -19.8294   23.0407 H   0  0  0  0  0  0  0  0  0  0  0  0
  1  2  1  0
  2  3  1  0
  3  4  1  0
  4  5  1  0
  5  6  2  0
  5  7  1  0
  7  8  1  0
  8  9  1  0
  9 10  1  0
 10 11  2  0
 10 12  1  0
  2 13  1  0
 13 14  1  0
 14 15  2  0
 14 16  1  0
 16 17  1  0
 17 18  2  0
 18 19  1  0
 19 20  2  0
 20 21  1  0
 21 22  1  0
 12  7  1  0
 21 17  1  0
  1 23  1  0
  1 24  1  0
  1 25  1  0
  2 26  1  0
  3 27  1  0
  3 28  1  0
  4 29  1  0
  7 30  1  0
  8 31  1  0
  8 32  1  0
  9 33  1  0
  9 34  1  0
 12 35  1  0
 13 36  1  0
 16 37  1  0
 16 38  1  0
 19 39  1  0
 20 40  1  0
 22 41  1  0
 22 42  1  0
 22 43  1  0
M  END
>  <Energy>  (311) 
731.51140783537767

>  <compound_id>  (311) 
53484

>  <target_id>  (311) 
1

>  <reference_id>  (311) 
101

>  <inspiration_ids>  (311) 
[101, 98]

>  <energy_score>  (311) 
681.3670953101954

>  <distance_score>  (311) 
12.025692602464613

>  <path>  (311) 
/opt/xchem-fragalysis-2/maxwin/BulkDock/SCRATCH/511024/C53484-P101/C53484-P101.minimised.mol

>  <scratch_subdir>  (311) 
/opt/xchem-fragalysis-2/maxwin/BulkDock/SCRATCH/511024/C53484-P101

>  <fragmenstein_runtime>  (311) 
37.43897199630737

>  <fragmenstein_outcome>  (311) 
too moved

>  <fragmenstein_mode>  (311) 
expansion

>  <fragmenstein_error>  (311) 


$$$$
C53484-P98
     RDKit          3D

 43 44  0  0  0  0  0  0  0  0999 V2000
   -0.5258  -16.5465   20.2487 C   0  0  0  0  0  0  0  0  0  0  0  0
    0.3600  -15.7548   21.2319 C   0  0  0  0  0  0  0  0  0  0  0  0
    2.0193  -15.0367   20.3300 C   0  0  0  0  0  0  0  0  0  0  0  0
    3.0353  -14.6528   18.8197 N   0  0  0  0  0  0  0  0  0  0  0  0
    4.4872  -13.7372   18.6800 C   0  0  0  0  0  0  0  0  0  0  0  0
    5.0814  -13.0881   19.5312 O   0  0  0  0  0  0  0  0  0  0  0  0
    5.3480  -13.7587   17.3055 C   0  0  0  0  0  0  0  0  0  0  0  0
    5.5356  -12.3607   16.6430 C   0  0  0  0  0  0  0  0  0  0  0  0
    6.7824  -11.7111   17.2385 C   0  0  0  0  0  0  0  0  0  0  0  0
    7.5682  -12.8768   17.7385 C   0  0  0  0  0  0  0  0  0  0  0  0
    8.7076  -12.8199   18.1784 O   0  0  0  0  0  0  0  0  0  0  0  0
    6.7774  -14.0190   17.6346 N   0  0  0  0  0  0  0  0  0  0  0  0
   -0.5511  -16.4474   22.2397 N   0  0  0  0  0  0  0  0  0  0  0  0
   -1.4436  -15.7845   24.0056 C   0  0  0  0  0  0  0  0  0  0  0  0
   -1.3999  -14.6712   24.4383 O   0  0  0  0  0  0  0  0  0  0  0  0
   -2.4088  -17.3885   25.2256 C   0  0  0  0  0  0  0  0  0  0  0  0
   -3.1185  -19.3922   25.5152 C   0  0  0  0  0  0  0  0  0  0  0  0
   -4.0189  -19.9604   24.4452 N   0  0  0  0  0  0  0  0  0  0  0  0
   -5.2912  -19.4207   24.7433 C   0  0  0  0  0  0  0  0  0  0  0  0
   -5.6535  -19.6565   25.9997 C   0  0  0  0  0  0  0  0  0  0  0  0
   -4.7007  -20.5244   25.7447 N   0  0  0  0  0  0  0  0  0  0  0  0
   -5.4256  -21.8741   26.7833 C   0  0  0  0  0  0  0  0  0  0  0  0
    0.1686  -17.2092   19.7656 H   0  0  0  0  0  0  0  0  0  0  0  0
   -1.2432  -15.9043   19.7114 H   0  0  0  0  0  0  0  0  0  0  0  0
   -1.2724  -17.3158   20.5145 H   0  0  0  0  0  0  0  0  0  0  0  0
    0.2289  -14.9261   21.9513 H   0  0  0  0  0  0  0  0  0  0  0  0
    1.9982  -14.0505   20.2559 H   0  0  0  0  0  0  0  0  0  0  0  0
    2.6189  -14.6949   21.1737 H   0  0  0  0  0  0  0  0  0  0  0  0
    2.8532  -15.1376   17.9546 H   0  0  0  0  0  0  0  0  0  0  0  0
    5.0486  -14.5781   16.6483 H   0  0  0  0  0  0  0  0  0  0  0  0
    5.6889  -12.5003   15.5649 H   0  0  0  0  0  0  0  0  0  0  0  0
    4.6963  -11.6757   16.7729 H   0  0  0  0  0  0  0  0  0  0  0  0
    6.5358  -11.0603   18.0819 H   0  0  0  0  0  0  0  0  0  0  0  0
    7.3447  -11.1570   16.4835 H   0  0  0  0  0  0  0  0  0  0  0  0
    7.0553  -14.8166   18.1905 H   0  0  0  0  0  0  0  0  0  0  0  0
   -0.6601  -17.4754   22.1257 H   0  0  0  0  0  0  0  0  0  0  0  0
   -2.9207  -16.8475   26.0141 H   0  0  0  0  0  0  0  0  0  0  0  0
   -1.5970  -17.8344   25.8867 H   0  0  0  0  0  0  0  0  0  0  0  0
   -5.9308  -18.9011   23.9416 H   0  0  0  0  0  0  0  0  0  0  0  0
   -6.3741  -19.6651   26.7547 H   0  0  0  0  0  0  0  0  0  0  0  0
   -6.0571  -22.4952   26.1299 H   0  0  0  0  0  0  0  0  0  0  0  0
   -4.8425  -22.6539   27.2609 H   0  0  0  0  0  0  0  0  0  0  0  0
   -6.0445  -21.4177   27.5392 H   0  0  0  0  0  0  0  0  0  0  0  0
  1  2  1  0
  2  3  1  0
  3  4  1  0
  4  5  1  0
  5  6  2  0
  5  7  1  0
  7  8  1  0
  8  9  1  0
  9 10  1  0
 10 11  2  0
 10 12  1  0
  2 13  1  0
 13 14  1  0
 14 15  2  0
 14 16  1  0
 16 17  1  0
 17 18  2  0
 18 19  1  0
 19 20  2  0
 20 21  1  0
 21 22  1  0
 12  7  1  0
 21 17  1  0
  1 23  1  0
  1 24  1  0
  1 25  1  0
  2 26  1  0
  3 27  1  0
  3 28  1  0
  4 29  1  0
  7 30  1  0
  8 31  1  0
  8 32  1  0
  9 33  1  0
  9 34  1  0
 12 35  1  0
 13 36  1  0
 16 37  1  0
 16 38  1  0
 19 39  1  0
 20 40  1  0
 22 41  1  0
 22 42  1  0
 22 43  1  0
M  END
>  <Energy>  (312) 
1211.3290529803128

>  <compound_id>  (312) 
53484

>  <target_id>  (312) 
1

>  <reference_id>  (312) 
98

>  <inspiration_ids>  (312) 
[101, 98]

>  <energy_score>  (312) 
1161.1847404551504

>  <distance_score>  (312) 
11.450707498921211

>  <path>  (312) 
/opt/xchem-fragalysis-2/maxwin/BulkDock/SCRATCH/511024/C53484-P98/C53484-P98.minimised.mol

>  <scratch_subdir>  (312) 
/opt/xchem-fragalysis-2/maxwin/BulkDock/SCRATCH/511024/C53484-P98

>  <fragmenstein_runtime>  (312) 
40.897066593170166

>  <fragmenstein_outcome>  (312) 
too moved

>  <fragmenstein_mode>  (312) 
expansion

>  <fragmenstein_error>  (312) 


$$$$
C53485-P101
     RDKit          3D

 36 37  0  0  0  0  0  0  0  0999 V2000
   -0.5418  -17.9349   19.7278 C   0  0  0  0  0  0  0  0  0  0  0  0
   -1.6444  -17.7850   18.8272 N   0  0  0  0  0  0  0  0  0  0  0  0
   -2.8139  -18.4920   18.9533 C   0  0  0  0  0  0  0  0  0  0  0  0
   -3.6187  -18.2597   17.9487 N   0  0  0  0  0  0  0  0  0  0  0  0
   -2.9248  -17.3852   17.1469 C   0  0  0  0  0  0  0  0  0  0  0  0
   -1.6838  -17.0218   17.6739 C   0  0  0  0  0  0  0  0  0  0  0  0
   -0.7150  -15.9009   17.1798 C   0  0  0  0  0  0  0  0  0  0  0  0
    0.8430  -16.1293   17.0033 C   0  0  0  0  0  0  0  0  0  0  0  0
    1.2820  -17.2450   17.0821 O   0  0  0  0  0  0  0  0  0  0  0  0
    1.5307  -14.8315   16.7063 N   0  0  0  0  0  0  0  0  0  0  0  0
    2.9657  -14.5369   16.3161 C   0  0  0  0  0  0  0  0  0  0  0  0
    3.6061  -13.1869   16.8401 C   0  0  0  0  0  0  0  0  0  0  0  0
    4.8712  -12.5785   16.1414 C   0  0  0  0  0  0  0  0  0  0  0  0
    6.1139  -13.4574   16.0465 C   0  0  0  0  0  0  0  0  0  0  0  0
    7.2860  -12.4627   16.0050 C   0  0  0  0  0  0  0  0  0  0  0  0
    6.7821  -11.3757   16.9080 C   0  0  0  0  0  0  0  0  0  0  0  0
    7.4532  -10.6140   17.5843 O   0  0  0  0  0  0  0  0  0  0  0  0
    5.3976  -11.4161   16.8450 N   0  0  0  0  0  0  0  0  0  0  0  0
    0.1254  -18.6655   19.2687 H   0  0  0  0  0  0  0  0  0  0  0  0
   -0.0658  -16.9664   19.8708 H   0  0  0  0  0  0  0  0  0  0  0  0
   -0.8939  -18.3173   20.6875 H   0  0  0  0  0  0  0  0  0  0  0  0
   -3.0129  -19.1609   19.7803 H   0  0  0  0  0  0  0  0  0  0  0  0
   -3.3738  -17.0093   16.2358 H   0  0  0  0  0  0  0  0  0  0  0  0
   -1.0732  -15.5961   16.1865 H   0  0  0  0  0  0  0  0  0  0  0  0
   -0.8658  -15.0445   17.8382 H   0  0  0  0  0  0  0  0  0  0  0  0
    0.8387  -14.0964   16.6367 H   0  0  0  0  0  0  0  0  0  0  0  0
    3.5715  -15.3909   16.6357 H   0  0  0  0  0  0  0  0  0  0  0  0
    2.9620  -14.5202   15.2211 H   0  0  0  0  0  0  0  0  0  0  0  0
    3.8522  -13.3465   17.8952 H   0  0  0  0  0  0  0  0  0  0  0  0
    2.8276  -12.4181   16.8132 H   0  0  0  0  0  0  0  0  0  0  0  0
    4.5854  -12.2317   15.1410 H   0  0  0  0  0  0  0  0  0  0  0  0
    6.0965  -14.1162   15.1733 H   0  0  0  0  0  0  0  0  0  0  0  0
    6.2030  -14.0870   16.9413 H   0  0  0  0  0  0  0  0  0  0  0  0
    7.4476  -12.0593   15.0012 H   0  0  0  0  0  0  0  0  0  0  0  0
    8.2036  -12.9098   16.3937 H   0  0  0  0  0  0  0  0  0  0  0  0
    4.8750  -10.9201   17.5719 H   0  0  0  0  0  0  0  0  0  0  0  0
  1  2  1  0
  2  3  1  0
  3  4  2  0
  4  5  1  0
  5  6  2  0
  6  7  1  0
  7  8  1  0
  8  9  2  0
  8 10  1  0
 10 11  1  0
 11 12  1  0
 12 13  1  0
 13 14  1  0
 14 15  1  0
 15 16  1  0
 16 17  2  0
 16 18  1  0
  6  2  1  0
 18 13  1  0
  1 19  1  0
  1 20  1  0
  1 21  1  0
  3 22  1  0
  5 23  1  0
  7 24  1  0
  7 25  1  0
 10 26  1  0
 11 27  1  0
 11 28  1  0
 12 29  1  0
 12 30  1  0
 13 31  1  0
 14 32  1  0
 14 33  1  0
 15 34  1  0
 15 35  1  0
 18 36  1  0
M  END
>  <Energy>  (313) 
16.218730950249633

>  <compound_id>  (313) 
53485

>  <target_id>  (313) 
1

>  <reference_id>  (313) 
101

>  <inspiration_ids>  (313) 
[101, 98]

>  <energy_score>  (313) 
-10.873400191784924

>  <distance_score>  (313) 
14.016845368636258

>  <path>  (313) 
/opt/xchem-fragalysis-2/maxwin/BulkDock/SCRATCH/511024/C53485-P101/C53485-P101.minimised.mol

>  <scratch_subdir>  (313) 
/opt/xchem-fragalysis-2/maxwin/BulkDock/SCRATCH/511024/C53485-P101

>  <fragmenstein_runtime>  (313) 
24.890762090682983

>  <fragmenstein_outcome>  (313) 
too moved

>  <fragmenstein_mode>  (313) 
expansion

>  <fragmenstein_error>  (313) 


$$$$
C53485-P98
     RDKit          3D

 36 37  0  0  0  0  0  0  0  0999 V2000
   -2.5117  -15.0645   30.0058 C   0  0  0  0  0  0  0  0  0  0  0  0
   -2.2935  -15.8908   28.8350 N   0  0  0  0  0  0  0  0  0  0  0  0
   -2.2353  -17.2396   29.2103 C   0  0  0  0  0  0  0  0  0  0  0  0
   -2.5055  -18.0609   28.2545 N   0  0  0  0  0  0  0  0  0  0  0  0
   -2.6137  -17.2349   27.1975 C   0  0  0  0  0  0  0  0  0  0  0  0
   -2.3096  -15.7972   27.4024 C   0  0  0  0  0  0  0  0  0  0  0  0
   -2.3186  -14.5416   25.8771 C   0  0  0  0  0  0  0  0  0  0  0  0
   -2.2352  -15.3410   24.5953 C   0  0  0  0  0  0  0  0  0  0  0  0
   -2.8993  -16.3124   24.6986 O   0  0  0  0  0  0  0  0  0  0  0  0
   -1.1612  -14.8837   23.2809 N   0  0  0  0  0  0  0  0  0  0  0  0
   -0.5923  -15.8966   21.6474 C   0  0  0  0  0  0  0  0  0  0  0  0
   -1.4042  -16.1082   19.9818 C   0  0  0  0  0  0  0  0  0  0  0  0
   -0.7833  -16.0903   18.3958 C   0  0  0  0  0  0  0  0  0  0  0  0
   -1.1040  -14.9327   17.4128 C   0  0  0  0  0  0  0  0  0  0  0  0
    0.2120  -14.4423   16.7923 C   0  0  0  0  0  0  0  0  0  0  0  0
    1.2386  -15.4304   17.2415 C   0  0  0  0  0  0  0  0  0  0  0  0
    2.4235  -15.3996   16.9448 O   0  0  0  0  0  0  0  0  0  0  0  0
    0.5980  -16.3532   18.0736 N   0  0  0  0  0  0  0  0  0  0  0  0
   -3.2738  -15.5515   30.6301 H   0  0  0  0  0  0  0  0  0  0  0  0
   -1.5872  -15.0424   30.5913 H   0  0  0  0  0  0  0  0  0  0  0  0
   -2.9050  -14.0782   29.8154 H   0  0  0  0  0  0  0  0  0  0  0  0
   -2.0700  -17.5316   30.2412 H   0  0  0  0  0  0  0  0  0  0  0  0
   -2.8334  -17.7185   26.2621 H   0  0  0  0  0  0  0  0  0  0  0  0
   -2.9830  -13.7479   26.1645 H   0  0  0  0  0  0  0  0  0  0  0  0
   -1.5406  -13.8712   25.5031 H   0  0  0  0  0  0  0  0  0  0  0  0
   -0.6553  -14.0190   23.5245 H   0  0  0  0  0  0  0  0  0  0  0  0
    0.4124  -15.5914   21.4668 H   0  0  0  0  0  0  0  0  0  0  0  0
   -0.4237  -16.9827   21.7528 H   0  0  0  0  0  0  0  0  0  0  0  0
   -2.2933  -15.4899   20.0048 H   0  0  0  0  0  0  0  0  0  0  0  0
   -1.7770  -17.1425   20.0666 H   0  0  0  0  0  0  0  0  0  0  0  0
   -1.3068  -16.9584   17.9665 H   0  0  0  0  0  0  0  0  0  0  0  0
   -1.7348  -15.3267   16.6036 H   0  0  0  0  0  0  0  0  0  0  0  0
   -1.6690  -14.1033   17.8300 H   0  0  0  0  0  0  0  0  0  0  0  0
    0.1532  -14.4324   15.7004 H   0  0  0  0  0  0  0  0  0  0  0  0
    0.4768  -13.4564   17.1492 H   0  0  0  0  0  0  0  0  0  0  0  0
    1.0096  -17.2753   18.1445 H   0  0  0  0  0  0  0  0  0  0  0  0
  1  2  1  0
  2  3  1  0
  3  4  2  0
  4  5  1  0
  5  6  2  0
  6  7  1  0
  7  8  1  0
  8  9  2  0
  8 10  1  0
 10 11  1  0
 11 12  1  0
 12 13  1  0
 13 14  1  0
 14 15  1  0
 15 16  1  0
 16 17  2  0
 16 18  1  0
  6  2  1  0
 18 13  1  0
  1 19  1  0
  1 20  1  0
  1 21  1  0
  3 22  1  0
  5 23  1  0
  7 24  1  0
  7 25  1  0
 10 26  1  0
 11 27  1  0
 11 28  1  0
 12 29  1  0
 12 30  1  0
 13 31  1  0
 14 32  1  0
 14 33  1  0
 15 34  1  0
 15 35  1  0
 18 36  1  0
M  END
>  <Energy>  (314) 
319.81063584360538

>  <compound_id>  (314) 
53485

>  <target_id>  (314) 
1

>  <reference_id>  (314) 
98

>  <inspiration_ids>  (314) 
[101, 98]

>  <energy_score>  (314) 
292.7185047015634

>  <distance_score>  (314) 
16.324610039204558

>  <path>  (314) 
/opt/xchem-fragalysis-2/maxwin/BulkDock/SCRATCH/511024/C53485-P98/C53485-P98.minimised.mol

>  <scratch_subdir>  (314) 
/opt/xchem-fragalysis-2/maxwin/BulkDock/SCRATCH/511024/C53485-P98

>  <fragmenstein_runtime>  (314) 
22.909687280654907

>  <fragmenstein_outcome>  (314) 
too moved

>  <fragmenstein_mode>  (314) 
expansion

>  <fragmenstein_error>  (314) 


$$$$
C53486-P101
     RDKit          3D

 46 47  0  0  0  0  0  0  0  0999 V2000
   -1.7556  -21.3519   15.3600 C   0  0  0  0  0  0  0  0  0  0  0  0
   -0.4290  -20.7416   15.5966 C   0  0  0  0  0  0  0  0  0  0  0  0
    0.1396  -19.7743   14.8971 N   0  0  0  0  0  0  0  0  0  0  0  0
    1.3245  -19.4406   15.5496 C   0  0  0  0  0  0  0  0  0  0  0  0
    2.0924  -18.0913   15.2291 C   0  0  0  0  0  0  0  0  0  0  0  0
    2.2044  -17.2266   16.5445 C   0  0  0  0  0  0  0  0  0  0  0  0
    1.6841  -17.7189   17.5561 O   0  0  0  0  0  0  0  0  0  0  0  0
    3.1419  -15.7876   16.3670 N   0  0  0  0  0  0  0  0  0  0  0  0
    3.8429  -14.4634   17.7571 C   0  0  0  0  0  0  0  0  0  0  0  0
    2.5817  -14.6031   18.4702 C   0  0  0  0  0  0  0  0  0  0  0  0
    4.4814  -12.3970   17.6953 C   0  0  0  0  0  0  0  0  0  0  0  0
    6.1207  -11.1043   17.6219 N   0  0  0  0  0  0  0  0  0  0  0  0
    7.3963  -10.7012   16.2253 C   0  0  0  0  0  0  0  0  0  0  0  0
    7.2117  -11.2063   15.1427 O   0  0  0  0  0  0  0  0  0  0  0  0
    9.2468   -9.6436   16.2016 C   0  0  0  0  0  0  0  0  0  0  0  0
    9.9088   -7.6795   15.5007 C   0  0  0  0  0  0  0  0  0  0  0  0
   11.8369   -7.0511   15.9948 C   0  0  0  0  0  0  0  0  0  0  0  0
   12.6222   -5.6885   16.4065 C   0  0  0  0  0  0  0  0  0  0  0  0
   11.5223   -4.9753   16.1539 N   0  0  0  0  0  0  0  0  0  0  0  0
   10.9263   -5.9367   15.2545 C   0  0  0  0  0  0  0  0  0  0  0  0
   10.5685   -5.1127   14.3334 O   0  0  0  0  0  0  0  0  0  0  0  0
    1.5164  -20.3541   16.5768 C   0  0  0  0  0  0  0  0  0  0  0  0
    0.3783  -21.1198   16.6350 N   0  0  0  0  0  0  0  0  0  0  0  0
   -1.6654  -22.4345   15.2281 H   0  0  0  0  0  0  0  0  0  0  0  0
   -2.2155  -20.9361   14.4584 H   0  0  0  0  0  0  0  0  0  0  0  0
   -2.4242  -21.1573   16.2043 H   0  0  0  0  0  0  0  0  0  0  0  0
    1.5624  -17.5290   14.4572 H   0  0  0  0  0  0  0  0  0  0  0  0
    3.0994  -18.3402   14.8816 H   0  0  0  0  0  0  0  0  0  0  0  0
    3.4810  -15.7239   15.4250 H   0  0  0  0  0  0  0  0  0  0  0  0
    4.6170  -15.0287   18.2432 H   0  0  0  0  0  0  0  0  0  0  0  0
    2.3439  -15.6011   18.3240 H   0  0  0  0  0  0  0  0  0  0  0  0
    2.5868  -14.5605   19.5416 H   0  0  0  0  0  0  0  0  0  0  0  0
    1.7517  -14.1043   17.9817 H   0  0  0  0  0  0  0  0  0  0  0  0
    4.5407  -12.5131   18.7934 H   0  0  0  0  0  0  0  0  0  0  0  0
    3.7002  -11.7801   17.2409 H   0  0  0  0  0  0  0  0  0  0  0  0
    6.3497  -10.5582   18.4283 H   0  0  0  0  0  0  0  0  0  0  0  0
    9.8358  -10.1627   16.9665 H   0  0  0  0  0  0  0  0  0  0  0  0
    9.7307  -10.2249   15.3763 H   0  0  0  0  0  0  0  0  0  0  0  0
    9.0465   -7.2569   15.0037 H   0  0  0  0  0  0  0  0  0  0  0  0
   12.6437   -7.4916   15.4304 H   0  0  0  0  0  0  0  0  0  0  0  0
   12.1545   -7.7675   16.6369 H   0  0  0  0  0  0  0  0  0  0  0  0
   12.9850   -5.4644   17.4189 H   0  0  0  0  0  0  0  0  0  0  0  0
   13.4533   -5.3680   15.7817 H   0  0  0  0  0  0  0  0  0  0  0  0
   10.9548   -4.7574   16.9515 H   0  0  0  0  0  0  0  0  0  0  0  0
    2.2687  -20.4229   17.3504 H   0  0  0  0  0  0  0  0  0  0  0  0
    0.1503  -21.7837   17.3617 H   0  0  0  0  0  0  0  0  0  0  0  0
  1  2  1  0
  2  3  2  0
  3  4  1  0
  4  5  1  0
  5  6  1  0
  6  7  2  0
  6  8  1  0
  8  9  1  0
  9 10  1  0
  9 11  1  0
 11 12  1  0
 12 13  1  0
 13 14  2  0
 13 15  1  0
 15 16  1  0
 16 17  1  0
 17 18  1  0
 18 19  1  0
 19 20  1  0
 20 21  2  0
  4 22  2  0
 22 23  1  0
 23  2  1  0
 20 16  1  0
  1 24  1  0
  1 25  1  0
  1 26  1  0
  5 27  1  0
  5 28  1  0
  8 29  1  0
  9 30  1  0
 10 31  1  0
 10 32  1  0
 10 33  1  0
 11 34  1  0
 11 35  1  0
 12 36  1  0
 15 37  1  0
 15 38  1  0
 16 39  1  0
 17 40  1  0
 17 41  1  0
 18 42  1  0
 18 43  1  0
 19 44  1  0
 22 45  1  0
 23 46  1  0
M  END
>  <Energy>  (315) 
1113.8063671886694

>  <compound_id>  (315) 
53486

>  <target_id>  (315) 
1

>  <reference_id>  (315) 
101

>  <inspiration_ids>  (315) 
[101, 98]

>  <energy_score>  (315) 
1101.2836030482647

>  <distance_score>  (315) 
12.290830439346921

>  <path>  (315) 
/opt/xchem-fragalysis-2/maxwin/BulkDock/SCRATCH/511024/C53486-P101/C53486-P101.minimised.mol

>  <scratch_subdir>  (315) 
/opt/xchem-fragalysis-2/maxwin/BulkDock/SCRATCH/511024/C53486-P101

>  <fragmenstein_runtime>  (315) 
27.57507610321045

>  <fragmenstein_outcome>  (315) 
too moved

>  <fragmenstein_mode>  (315) 
expansion

>  <fragmenstein_error>  (315) 


$$$$
C53486-P98
     RDKit          3D

 46 47  0  0  0  0  0  0  0  0999 V2000
   -3.9868  -21.2995   26.5210 C   0  0  0  0  0  0  0  0  0  0  0  0
   -4.9129  -20.3286   25.9019 C   0  0  0  0  0  0  0  0  0  0  0  0
   -4.9376  -19.8882   24.6218 N   0  0  0  0  0  0  0  0  0  0  0  0
   -6.1981  -18.7339   24.1987 C   0  0  0  0  0  0  0  0  0  0  0  0
   -6.4199  -18.0891   22.5074 C   0  0  0  0  0  0  0  0  0  0  0  0
   -5.3737  -17.2402   21.0974 C   0  0  0  0  0  0  0  0  0  0  0  0
   -5.7822  -17.5387   19.9655 O   0  0  0  0  0  0  0  0  0  0  0  0
   -4.0127  -16.1318   21.5524 N   0  0  0  0  0  0  0  0  0  0  0  0
   -2.7269  -15.0874   20.4439 C   0  0  0  0  0  0  0  0  0  0  0  0
   -2.2247  -16.1593   19.5310 C   0  0  0  0  0  0  0  0  0  0  0  0
   -2.3844  -12.9982   20.3400 C   0  0  0  0  0  0  0  0  0  0  0  0
   -1.8934  -11.5948   20.7352 N   0  0  0  0  0  0  0  0  0  0  0  0
   -2.0782  -10.2760   20.0663 C   0  0  0  0  0  0  0  0  0  0  0  0
   -2.5903   -9.9982   19.0103 O   0  0  0  0  0  0  0  0  0  0  0  0
   -1.5241   -9.0073   20.8924 C   0  0  0  0  0  0  0  0  0  0  0  0
   -0.0746   -8.3875   20.7639 C   0  0  0  0  0  0  0  0  0  0  0  0
    0.2001   -7.3647   21.9075 C   0  0  0  0  0  0  0  0  0  0  0  0
    0.2026   -5.9893   21.2745 C   0  0  0  0  0  0  0  0  0  0  0  0
    0.5911   -6.2266   19.9349 N   0  0  0  0  0  0  0  0  0  0  0  0
    0.3746   -7.5317   19.5310 C   0  0  0  0  0  0  0  0  0  0  0  0
    0.6669   -7.8591   18.3903 O   0  0  0  0  0  0  0  0  0  0  0  0
   -6.6303  -18.6649   25.7567 C   0  0  0  0  0  0  0  0  0  0  0  0
   -5.8535  -19.5434   26.6514 N   0  0  0  0  0  0  0  0  0  0  0  0
   -3.3042  -20.7964   27.2120 H   0  0  0  0  0  0  0  0  0  0  0  0
   -4.5431  -22.0618   27.0745 H   0  0  0  0  0  0  0  0  0  0  0  0
   -3.3916  -21.8031   25.7536 H   0  0  0  0  0  0  0  0  0  0  0  0
   -7.3879  -17.5687   22.5880 H   0  0  0  0  0  0  0  0  0  0  0  0
   -6.7193  -19.0218   21.9959 H   0  0  0  0  0  0  0  0  0  0  0  0
   -3.8708  -16.1555   22.5328 H   0  0  0  0  0  0  0  0  0  0  0  0
   -1.9425  -14.9761   21.1372 H   0  0  0  0  0  0  0  0  0  0  0  0
   -2.9838  -16.9019   19.2672 H   0  0  0  0  0  0  0  0  0  0  0  0
   -1.4203  -16.7154   20.0139 H   0  0  0  0  0  0  0  0  0  0  0  0
   -1.9404  -15.6448   18.6382 H   0  0  0  0  0  0  0  0  0  0  0  0
   -2.1746  -12.7924   19.2439 H   0  0  0  0  0  0  0  0  0  0  0  0
   -3.4132  -12.5462   20.3489 H   0  0  0  0  0  0  0  0  0  0  0  0
   -1.4976  -11.4475   21.6494 H   0  0  0  0  0  0  0  0  0  0  0  0
   -1.6862   -9.2594   21.9448 H   0  0  0  0  0  0  0  0  0  0  0  0
   -2.2412   -8.2012   20.6814 H   0  0  0  0  0  0  0  0  0  0  0  0
    0.6570   -9.1787   20.9268 H   0  0  0  0  0  0  0  0  0  0  0  0
   -0.5174   -7.4267   22.7315 H   0  0  0  0  0  0  0  0  0  0  0  0
    1.1880   -7.5599   22.3387 H   0  0  0  0  0  0  0  0  0  0  0  0
   -0.7995   -5.5492   21.2675 H   0  0  0  0  0  0  0  0  0  0  0  0
    0.9011   -5.3001   21.7555 H   0  0  0  0  0  0  0  0  0  0  0  0
    0.8234   -5.5282   19.2395 H   0  0  0  0  0  0  0  0  0  0  0  0
   -7.1829  -17.8989   26.3195 H   0  0  0  0  0  0  0  0  0  0  0  0
   -5.7915  -19.3997   27.6472 H   0  0  0  0  0  0  0  0  0  0  0  0
  1  2  1  0
  2  3  2  0
  3  4  1  0
  4  5  1  0
  5  6  1  0
  6  7  2  0
  6  8  1  0
  8  9  1  0
  9 10  1  0
  9 11  1  0
 11 12  1  0
 12 13  1  0
 13 14  2  0
 13 15  1  0
 15 16  1  0
 16 17  1  0
 17 18  1  0
 18 19  1  0
 19 20  1  0
 20 21  2  0
  4 22  2  0
 22 23  1  0
 23  2  1  0
 20 16  1  0
  1 24  1  0
  1 25  1  0
  1 26  1  0
  5 27  1  0
  5 28  1  0
  8 29  1  0
  9 30  1  0
 10 31  1  0
 10 32  1  0
 10 33  1  0
 11 34  1  0
 11 35  1  0
 12 36  1  0
 15 37  1  0
 15 38  1  0
 16 39  1  0
 17 40  1  0
 17 41  1  0
 18 42  1  0
 18 43  1  0
 19 44  1  0
 22 45  1  0
 23 46  1  0
M  END
>  <Energy>  (316) 
479.84433222684845

>  <compound_id>  (316) 
53486

>  <target_id>  (316) 
1

>  <reference_id>  (316) 
98

>  <inspiration_ids>  (316) 
[101, 98]

>  <energy_score>  (316) 
467.3215680864452

>  <distance_score>  (316) 
13.718856569650729

>  <path>  (316) 
/opt/xchem-fragalysis-2/maxwin/BulkDock/SCRATCH/511024/C53486-P98/C53486-P98.minimised.mol

>  <scratch_subdir>  (316) 
/opt/xchem-fragalysis-2/maxwin/BulkDock/SCRATCH/511024/C53486-P98

>  <fragmenstein_runtime>  (316) 
29.500833749771118

>  <fragmenstein_outcome>  (316) 
too moved

>  <fragmenstein_mode>  (316) 
expansion

>  <fragmenstein_error>  (316) 


$$$$
C53487-P101
     RDKit          3D

 46 47  0  0  0  0  0  0  0  0999 V2000
    1.4330  -21.8441   27.0431 C   0  0  0  0  0  0  0  0  0  0  0  0
    2.0950  -21.0254   26.0037 C   0  0  0  0  0  0  0  0  0  0  0  0
    2.5054  -19.7779   26.1133 N   0  0  0  0  0  0  0  0  0  0  0  0
    3.0971  -19.4240   24.8792 C   0  0  0  0  0  0  0  0  0  0  0  0
    3.2530  -17.7757   24.5334 C   0  0  0  0  0  0  0  0  0  0  0  0
    4.1753  -16.0509   23.9810 C   0  0  0  0  0  0  0  0  0  0  0  0
    5.3448  -16.0375   24.2311 O   0  0  0  0  0  0  0  0  0  0  0  0
    3.1662  -14.7559   23.3374 N   0  0  0  0  0  0  0  0  0  0  0  0
    3.5451  -12.8689   22.9494 C   0  0  0  0  0  0  0  0  0  0  0  0
    2.5457  -12.7238   23.9691 C   0  0  0  0  0  0  0  0  0  0  0  0
    4.8108  -11.2659   22.6929 C   0  0  0  0  0  0  0  0  0  0  0  0
    6.4282  -11.3558   23.6358 N   0  0  0  0  0  0  0  0  0  0  0  0
    7.0447  -10.4107   24.6652 C   0  0  0  0  0  0  0  0  0  0  0  0
    6.5987   -9.4082   25.1845 O   0  0  0  0  0  0  0  0  0  0  0  0
    8.4626  -10.9141   25.1771 C   0  0  0  0  0  0  0  0  0  0  0  0
    9.7560  -10.2996   24.5644 C   0  0  0  0  0  0  0  0  0  0  0  0
    9.7207   -8.8124   24.2299 C   0  0  0  0  0  0  0  0  0  0  0  0
   11.0909   -8.5523   23.8868 N   0  0  0  0  0  0  0  0  0  0  0  0
   11.9468   -9.4042   24.5449 C   0  0  0  0  0  0  0  0  0  0  0  0
   13.1596   -9.3219   24.4899 O   0  0  0  0  0  0  0  0  0  0  0  0
   11.0868  -10.3834   25.3372 C   0  0  0  0  0  0  0  0  0  0  0  0
    3.0161  -20.5315   24.0462 C   0  0  0  0  0  0  0  0  0  0  0  0
    2.3480  -21.5021   24.7454 N   0  0  0  0  0  0  0  0  0  0  0  0
    2.1335  -22.5782   27.4527 H   0  0  0  0  0  0  0  0  0  0  0  0
    1.0815  -21.2113   27.8637 H   0  0  0  0  0  0  0  0  0  0  0  0
    0.5700  -22.3779   26.6331 H   0  0  0  0  0  0  0  0  0  0  0  0
    3.1941  -17.6026   25.6373 H   0  0  0  0  0  0  0  0  0  0  0  0
    2.2393  -17.7418   24.4534 H   0  0  0  0  0  0  0  0  0  0  0  0
    2.2253  -15.0422   23.3157 H   0  0  0  0  0  0  0  0  0  0  0  0
    3.3589  -12.9133   21.8832 H   0  0  0  0  0  0  0  0  0  0  0  0
    2.1500  -11.7860   24.0532 H   0  0  0  0  0  0  0  0  0  0  0  0
    3.0876  -13.2779   24.7019 H   0  0  0  0  0  0  0  0  0  0  0  0
    1.6790  -13.3144   24.1597 H   0  0  0  0  0  0  0  0  0  0  0  0
    5.1167  -11.3049   21.6349 H   0  0  0  0  0  0  0  0  0  0  0  0
    4.4729  -10.3173   23.0125 H   0  0  0  0  0  0  0  0  0  0  0  0
    7.1103  -12.0396   23.3647 H   0  0  0  0  0  0  0  0  0  0  0  0
    8.4663  -10.7280   26.2594 H   0  0  0  0  0  0  0  0  0  0  0  0
    8.5001  -12.0053   25.0723 H   0  0  0  0  0  0  0  0  0  0  0  0
   10.0082  -10.8926   23.6771 H   0  0  0  0  0  0  0  0  0  0  0  0
    9.4562   -8.2021   25.1003 H   0  0  0  0  0  0  0  0  0  0  0  0
    9.0722   -8.5554   23.3956 H   0  0  0  0  0  0  0  0  0  0  0  0
   11.4878   -7.7323   23.4494 H   0  0  0  0  0  0  0  0  0  0  0  0
   11.5141  -11.3887   25.3032 H   0  0  0  0  0  0  0  0  0  0  0  0
   10.9927  -10.0372   26.3705 H   0  0  0  0  0  0  0  0  0  0  0  0
    3.2417  -20.6429   22.9944 H   0  0  0  0  0  0  0  0  0  0  0  0
    2.0691  -22.4026   24.3847 H   0  0  0  0  0  0  0  0  0  0  0  0
  1  2  1  0
  2  3  2  0
  3  4  1  0
  4  5  1  0
  5  6  1  0
  6  7  2  0
  6  8  1  0
  8  9  1  0
  9 10  1  0
  9 11  1  0
 11 12  1  0
 12 13  1  0
 13 14  2  0
 13 15  1  0
 15 16  1  0
 16 17  1  0
 17 18  1  0
 18 19  1  0
 19 20  2  0
 19 21  1  0
  4 22  2  0
 22 23  1  0
 23  2  1  0
 21 16  1  0
  1 24  1  0
  1 25  1  0
  1 26  1  0
  5 27  1  0
  5 28  1  0
  8 29  1  0
  9 30  1  0
 10 31  1  0
 10 32  1  0
 10 33  1  0
 11 34  1  0
 11 35  1  0
 12 36  1  0
 15 37  1  0
 15 38  1  0
 16 39  1  0
 17 40  1  0
 17 41  1  0
 18 42  1  0
 21 43  1  0
 21 44  1  0
 22 45  1  0
 23 46  1  0
M  END
>  <Energy>  (317) 
444.22214869433657

>  <compound_id>  (317) 
53487

>  <target_id>  (317) 
1

>  <reference_id>  (317) 
101

>  <inspiration_ids>  (317) 
[101, 98]

>  <energy_score>  (317) 
421.53194548436295

>  <distance_score>  (317) 
13.502690482871573

>  <path>  (317) 
/opt/xchem-fragalysis-2/maxwin/BulkDock/SCRATCH/511024/C53487-P101/C53487-P101.minimised.mol

>  <scratch_subdir>  (317) 
/opt/xchem-fragalysis-2/maxwin/BulkDock/SCRATCH/511024/C53487-P101

>  <fragmenstein_runtime>  (317) 
33.41625618934631

>  <fragmenstein_outcome>  (317) 
too moved

>  <fragmenstein_mode>  (317) 
expansion

>  <fragmenstein_error>  (317) 


$$$$
C53487-P98
     RDKit          3D

 46 47  0  0  0  0  0  0  0  0999 V2000
   -3.0003  -23.0641   25.0233 C   0  0  0  0  0  0  0  0  0  0  0  0
   -3.8159  -21.8487   25.2326 C   0  0  0  0  0  0  0  0  0  0  0  0
   -4.2629  -21.0330   24.3039 N   0  0  0  0  0  0  0  0  0  0  0  0
   -5.0056  -19.9973   24.9026 C   0  0  0  0  0  0  0  0  0  0  0  0
   -6.2194  -18.9221   23.6745 C   0  0  0  0  0  0  0  0  0  0  0  0
   -6.8061  -19.4691   22.0979 C   0  0  0  0  0  0  0  0  0  0  0  0
   -7.3892  -20.5196   22.0140 O   0  0  0  0  0  0  0  0  0  0  0  0
   -6.3604  -18.4889   21.0040 N   0  0  0  0  0  0  0  0  0  0  0  0
   -6.4288  -18.5953   19.4844 C   0  0  0  0  0  0  0  0  0  0  0  0
   -7.5346  -17.7061   18.9422 C   0  0  0  0  0  0  0  0  0  0  0  0
   -5.0152  -18.4406   18.6430 C   0  0  0  0  0  0  0  0  0  0  0  0
   -4.6909  -17.3913   17.5831 N   0  0  0  0  0  0  0  0  0  0  0  0
   -3.5489  -17.2931   16.6246 C   0  0  0  0  0  0  0  0  0  0  0  0
   -2.6501  -18.0583   16.4010 O   0  0  0  0  0  0  0  0  0  0  0  0
   -3.5611  -15.9570   15.7124 C   0  0  0  0  0  0  0  0  0  0  0  0
   -2.2927  -15.3455   14.8828 C   0  0  0  0  0  0  0  0  0  0  0  0
   -1.1251  -16.2335   14.4324 C   0  0  0  0  0  0  0  0  0  0  0  0
   -0.0146  -15.3413   14.1982 N   0  0  0  0  0  0  0  0  0  0  0  0
   -0.1614  -14.0979   14.7601 C   0  0  0  0  0  0  0  0  0  0  0  0
    0.7198  -13.2504   14.7640 O   0  0  0  0  0  0  0  0  0  0  0  0
   -1.5849  -14.0255   15.3510 C   0  0  0  0  0  0  0  0  0  0  0  0
   -4.9884  -20.3226   26.2478 C   0  0  0  0  0  0  0  0  0  0  0  0
   -4.2241  -21.4172   26.4584 N   0  0  0  0  0  0  0  0  0  0  0  0
   -2.7097  -23.5259   25.9720 H   0  0  0  0  0  0  0  0  0  0  0  0
   -3.5647  -23.8001   24.4429 H   0  0  0  0  0  0  0  0  0  0  0  0
   -2.0890  -22.8176   24.4700 H   0  0  0  0  0  0  0  0  0  0  0  0
   -6.0180  -17.9395   23.3457 H   0  0  0  0  0  0  0  0  0  0  0  0
   -7.0755  -18.6252   24.2537 H   0  0  0  0  0  0  0  0  0  0  0  0
   -5.9673  -17.6618   21.4355 H   0  0  0  0  0  0  0  0  0  0  0  0
   -6.7374  -19.6364   19.3223 H   0  0  0  0  0  0  0  0  0  0  0  0
   -8.4974  -17.9754   19.3906 H   0  0  0  0  0  0  0  0  0  0  0  0
   -7.6284  -17.8103   17.8569 H   0  0  0  0  0  0  0  0  0  0  0  0
   -7.3564  -16.6565   19.1782 H   0  0  0  0  0  0  0  0  0  0  0  0
   -4.8772  -19.3907   18.1103 H   0  0  0  0  0  0  0  0  0  0  0  0
   -4.1816  -18.3901   19.3450 H   0  0  0  0  0  0  0  0  0  0  0  0
   -5.3064  -16.6002   17.4488 H   0  0  0  0  0  0  0  0  0  0  0  0
   -4.0375  -15.1363   16.2498 H   0  0  0  0  0  0  0  0  0  0  0  0
   -4.2884  -16.2325   14.9323 H   0  0  0  0  0  0  0  0  0  0  0  0
   -2.7753  -15.0304   13.9414 H   0  0  0  0  0  0  0  0  0  0  0  0
   -1.3564  -16.7473   13.4938 H   0  0  0  0  0  0  0  0  0  0  0  0
   -0.8096  -16.9875   15.1483 H   0  0  0  0  0  0  0  0  0  0  0  0
    0.8994  -15.6334   13.8725 H   0  0  0  0  0  0  0  0  0  0  0  0
   -1.5707  -13.9285   16.4361 H   0  0  0  0  0  0  0  0  0  0  0  0
   -2.0990  -13.1552   14.9300 H   0  0  0  0  0  0  0  0  0  0  0  0
   -5.5618  -19.7803   26.9559 H   0  0  0  0  0  0  0  0  0  0  0  0
   -4.0485  -21.8733   27.3414 H   0  0  0  0  0  0  0  0  0  0  0  0
  1  2  1  0
  2  3  2  0
  3  4  1  0
  4  5  1  0
  5  6  1  0
  6  7  2  0
  6  8  1  0
  8  9  1  0
  9 10  1  0
  9 11  1  0
 11 12  1  0
 12 13  1  0
 13 14  2  0
 13 15  1  0
 15 16  1  0
 16 17  1  0
 17 18  1  0
 18 19  1  0
 19 20  2  0
 19 21  1  0
  4 22  2  0
 22 23  1  0
 23  2  1  0
 21 16  1  0
  1 24  1  0
  1 25  1  0
  1 26  1  0
  5 27  1  0
  5 28  1  0
  8 29  1  0
  9 30  1  0
 10 31  1  0
 10 32  1  0
 10 33  1  0
 11 34  1  0
 11 35  1  0
 12 36  1  0
 15 37  1  0
 15 38  1  0
 16 39  1  0
 17 40  1  0
 17 41  1  0
 18 42  1  0
 21 43  1  0
 21 44  1  0
 22 45  1  0
 23 46  1  0
M  END
>  <Energy>  (318) 
149.3416342570672

>  <compound_id>  (318) 
53487

>  <target_id>  (318) 
1

>  <reference_id>  (318) 
98

>  <inspiration_ids>  (318) 
[101, 98]

>  <energy_score>  (318) 
126.65143104710603

>  <distance_score>  (318) 
16.329001942827794

>  <path>  (318) 
/opt/xchem-fragalysis-2/maxwin/BulkDock/SCRATCH/511024/C53487-P98/C53487-P98.minimised.mol

>  <scratch_subdir>  (318) 
/opt/xchem-fragalysis-2/maxwin/BulkDock/SCRATCH/511024/C53487-P98

>  <fragmenstein_runtime>  (318) 
55.93947458267212

>  <fragmenstein_outcome>  (318) 
too moved

>  <fragmenstein_mode>  (318) 
expansion

>  <fragmenstein_error>  (318) 


$$$$
C53488-P101
     RDKit          3D

 49 50  0  0  0  0  0  0  0  0999 V2000
   -2.2397  -16.7276   28.5035 C   0  0  0  0  0  0  0  0  0  0  0  0
   -3.3463  -15.9755   27.8729 C   0  0  0  0  0  0  0  0  0  0  0  0
   -4.6145  -16.0558   28.4182 N   0  0  0  0  0  0  0  0  0  0  0  0
   -5.4634  -15.3452   27.6349 C   0  0  0  0  0  0  0  0  0  0  0  0
   -4.8290  -14.8227   26.6153 N   0  0  0  0  0  0  0  0  0  0  0  0
   -3.4812  -15.2089   26.7092 C   0  0  0  0  0  0  0  0  0  0  0  0
   -2.6051  -15.0177   25.4214 C   0  0  0  0  0  0  0  0  0  0  0  0
   -1.4945  -13.7915   25.2728 C   0  0  0  0  0  0  0  0  0  0  0  0
   -2.0435  -12.6994   25.5246 O   0  0  0  0  0  0  0  0  0  0  0  0
    0.2639  -14.1681   24.6593 N   0  0  0  0  0  0  0  0  0  0  0  0
    1.6694  -13.0158   24.1232 C   0  0  0  0  0  0  0  0  0  0  0  0
    0.0276  -13.8234   23.1133 C   0  0  0  0  0  0  0  0  0  0  0  0
    3.1796  -12.2426   22.8922 C   0  0  0  0  0  0  0  0  0  0  0  0
    4.9010  -11.2030   22.9168 N   0  0  0  0  0  0  0  0  0  0  0  0
    6.2979  -11.2958   24.0447 C   0  0  0  0  0  0  0  0  0  0  0  0
    6.4054  -12.1178   24.9328 O   0  0  0  0  0  0  0  0  0  0  0  0
    7.5350  -10.2302   24.1471 C   0  0  0  0  0  0  0  0  0  0  0  0
    8.3631   -8.8438   24.4076 C   0  0  0  0  0  0  0  0  0  0  0  0
    8.3818   -8.3774   25.8778 C   0  0  0  0  0  0  0  0  0  0  0  0
    9.2962   -7.1655   26.0644 C   0  0  0  0  0  0  0  0  0  0  0  0
   10.7398   -7.5021   25.7128 C   0  0  0  0  0  0  0  0  0  0  0  0
   10.8665   -8.2067   24.3914 C   0  0  0  0  0  0  0  0  0  0  0  0
   11.8737   -8.1544   23.6866 O   0  0  0  0  0  0  0  0  0  0  0  0
    9.8041   -8.9565   23.9842 N   0  0  0  0  0  0  0  0  0  0  0  0
   -1.4428  -16.0508   28.8186 H   0  0  0  0  0  0  0  0  0  0  0  0
   -2.5773  -17.2594   29.4003 H   0  0  0  0  0  0  0  0  0  0  0  0
   -1.8392  -17.4815   27.8204 H   0  0  0  0  0  0  0  0  0  0  0  0
   -4.8836  -16.5837   29.2372 H   0  0  0  0  0  0  0  0  0  0  0  0
   -6.5195  -15.2536   27.8456 H   0  0  0  0  0  0  0  0  0  0  0  0
   -3.4327  -14.6136   24.8071 H   0  0  0  0  0  0  0  0  0  0  0  0
   -2.4591  -15.8831   24.8111 H   0  0  0  0  0  0  0  0  0  0  0  0
    0.3908  -15.0679   24.5702 H   0  0  0  0  0  0  0  0  0  0  0  0
    2.3561  -13.8420   23.8896 H   0  0  0  0  0  0  0  0  0  0  0  0
   -0.8644  -14.4477   23.3029 H   0  0  0  0  0  0  0  0  0  0  0  0
   -0.2320  -12.8631   22.7025 H   0  0  0  0  0  0  0  0  0  0  0  0
    0.3021  -14.5553   22.3496 H   0  0  0  0  0  0  0  0  0  0  0  0
    3.6625  -12.8821   23.5979 H   0  0  0  0  0  0  0  0  0  0  0  0
    3.3811  -12.8136   21.9844 H   0  0  0  0  0  0  0  0  0  0  0  0
    5.0800  -10.5143   22.2407 H   0  0  0  0  0  0  0  0  0  0  0  0
    7.0588  -10.0136   25.1250 H   0  0  0  0  0  0  0  0  0  0  0  0
    8.3243  -10.9645   24.4120 H   0  0  0  0  0  0  0  0  0  0  0  0
    7.9344   -8.0071   23.8533 H   0  0  0  0  0  0  0  0  0  0  0  0
    7.3670   -8.1131   26.1992 H   0  0  0  0  0  0  0  0  0  0  0  0
    8.7283   -9.1919   26.5271 H   0  0  0  0  0  0  0  0  0  0  0  0
    9.2511   -6.8341   27.1084 H   0  0  0  0  0  0  0  0  0  0  0  0
    8.9274   -6.3303   25.4598 H   0  0  0  0  0  0  0  0  0  0  0  0
   11.3324   -6.5816   25.6814 H   0  0  0  0  0  0  0  0  0  0  0  0
   11.1720   -8.1572   26.4778 H   0  0  0  0  0  0  0  0  0  0  0  0
   10.0346   -9.3321   23.0799 H   0  0  0  0  0  0  0  0  0  0  0  0
  1  2  1  0
  2  3  1  0
  3  4  1  0
  4  5  2  0
  5  6  1  0
  6  7  1  0
  7  8  1  0
  8  9  2  0
  8 10  1  0
 10 11  1  0
 11 12  1  0
 11 13  1  0
 13 14  1  0
 14 15  1  0
 15 16  2  0
 15 17  1  0
 17 18  1  0
 18 19  1  0
 19 20  1  0
 20 21  1  0
 21 22  1  0
 22 23  2  0
 22 24  1  0
  6  2  2  0
 24 18  1  0
  1 25  1  0
  1 26  1  0
  1 27  1  0
  3 28  1  0
  4 29  1  0
  7 30  1  0
  7 31  1  0
 10 32  1  0
 11 33  1  0
 12 34  1  0
 12 35  1  0
 12 36  1  0
 13 37  1  0
 13 38  1  0
 14 39  1  0
 17 40  1  0
 17 41  1  0
 18 42  1  0
 19 43  1  0
 19 44  1  0
 20 45  1  0
 20 46  1  0
 21 47  1  0
 21 48  1  0
 24 49  1  0
M  END
>  <Energy>  (319) 
782.43634822082151

>  <compound_id>  (319) 
53488

>  <target_id>  (319) 
1

>  <reference_id>  (319) 
101

>  <inspiration_ids>  (319) 
[101, 98]

>  <energy_score>  (319) 
750.9324609636498

>  <distance_score>  (319) 
12.066899263069523

>  <path>  (319) 
/opt/xchem-fragalysis-2/maxwin/BulkDock/SCRATCH/511024/C53488-P101/C53488-P101.minimised.mol

>  <scratch_subdir>  (319) 
/opt/xchem-fragalysis-2/maxwin/BulkDock/SCRATCH/511024/C53488-P101

>  <fragmenstein_runtime>  (319) 
44.37107825279236

>  <fragmenstein_outcome>  (319) 
too moved

>  <fragmenstein_mode>  (319) 
expansion

>  <fragmenstein_error>  (319) 


$$$$
C53488-P98
     RDKit          3D

 49 50  0  0  0  0  0  0  0  0999 V2000
   -2.8976  -23.5615   25.8657 C   0  0  0  0  0  0  0  0  0  0  0  0
   -3.6655  -23.1012   24.6962 C   0  0  0  0  0  0  0  0  0  0  0  0
   -4.9480  -23.5356   24.4562 N   0  0  0  0  0  0  0  0  0  0  0  0
   -5.3374  -23.1650   23.2158 C   0  0  0  0  0  0  0  0  0  0  0  0
   -4.4547  -22.3557   22.7126 N   0  0  0  0  0  0  0  0  0  0  0  0
   -3.3779  -22.3092   23.6047 C   0  0  0  0  0  0  0  0  0  0  0  0
   -2.1953  -21.6154   22.9926 C   0  0  0  0  0  0  0  0  0  0  0  0
   -0.7623  -21.2972   23.6115 C   0  0  0  0  0  0  0  0  0  0  0  0
   -0.2485  -22.3532   24.0476 O   0  0  0  0  0  0  0  0  0  0  0  0
   -0.1721  -19.5127   23.7381 N   0  0  0  0  0  0  0  0  0  0  0  0
    1.2522  -18.7632   24.6708 C   0  0  0  0  0  0  0  0  0  0  0  0
   -0.0430  -18.5113   26.2152 C   0  0  0  0  0  0  0  0  0  0  0  0
    3.0444  -17.6726   24.4691 C   0  0  0  0  0  0  0  0  0  0  0  0
    4.2387  -15.9762   24.3947 N   0  0  0  0  0  0  0  0  0  0  0  0
    4.4389  -14.5597   25.5918 C   0  0  0  0  0  0  0  0  0  0  0  0
    3.7422  -14.4834   26.5682 O   0  0  0  0  0  0  0  0  0  0  0  0
    5.8380  -13.0794   25.6538 C   0  0  0  0  0  0  0  0  0  0  0  0
    6.6102  -11.6501   26.2933 C   0  0  0  0  0  0  0  0  0  0  0  0
    7.9075  -11.9685   27.0828 C   0  0  0  0  0  0  0  0  0  0  0  0
    8.6932  -10.7130   27.4539 C   0  0  0  0  0  0  0  0  0  0  0  0
    9.2849  -10.0900   26.2183 C   0  0  0  0  0  0  0  0  0  0  0  0
    8.2236   -9.8239   25.2010 C   0  0  0  0  0  0  0  0  0  0  0  0
    8.4030   -8.9223   24.3802 O   0  0  0  0  0  0  0  0  0  0  0  0
    7.1435  -10.6961   25.1612 N   0  0  0  0  0  0  0  0  0  0  0  0
   -3.2434  -24.5231   26.2387 H   0  0  0  0  0  0  0  0  0  0  0  0
   -2.9894  -22.8484   26.6899 H   0  0  0  0  0  0  0  0  0  0  0  0
   -1.8463  -23.7134   25.6104 H   0  0  0  0  0  0  0  0  0  0  0  0
   -5.5240  -24.0903   25.0531 H   0  0  0  0  0  0  0  0  0  0  0  0
   -6.2748  -23.4619   22.7641 H   0  0  0  0  0  0  0  0  0  0  0  0
   -2.5986  -20.6856   22.6853 H   0  0  0  0  0  0  0  0  0  0  0  0
   -2.0247  -22.4353   22.2586 H   0  0  0  0  0  0  0  0  0  0  0  0
   -0.7776  -18.8957   23.2038 H   0  0  0  0  0  0  0  0  0  0  0  0
    1.9574  -19.5599   24.5361 H   0  0  0  0  0  0  0  0  0  0  0  0
   -0.8968  -17.9192   25.9314 H   0  0  0  0  0  0  0  0  0  0  0  0
    0.4180  -17.9222   27.0519 H   0  0  0  0  0  0  0  0  0  0  0  0
   -0.8166  -19.1673   26.6507 H   0  0  0  0  0  0  0  0  0  0  0  0
    3.4807  -18.2012   25.2956 H   0  0  0  0  0  0  0  0  0  0  0  0
    3.2458  -18.0103   23.4864 H   0  0  0  0  0  0  0  0  0  0  0  0
    4.9543  -15.9127   23.7000 H   0  0  0  0  0  0  0  0  0  0  0  0
    6.6036  -13.6147   26.2336 H   0  0  0  0  0  0  0  0  0  0  0  0
    6.3185  -12.7565   24.7257 H   0  0  0  0  0  0  0  0  0  0  0  0
    5.9396  -11.0886   26.9481 H   0  0  0  0  0  0  0  0  0  0  0  0
    8.5548  -12.6318   26.4970 H   0  0  0  0  0  0  0  0  0  0  0  0
    7.6686  -12.4789   28.0083 H   0  0  0  0  0  0  0  0  0  0  0  0
    8.0377  -10.0027   27.9726 H   0  0  0  0  0  0  0  0  0  0  0  0
    9.4988  -10.9767   28.1487 H   0  0  0  0  0  0  0  0  0  0  0  0
   10.0357  -10.7473   25.7657 H   0  0  0  0  0  0  0  0  0  0  0  0
    9.7714   -9.1446   26.4817 H   0  0  0  0  0  0  0  0  0  0  0  0
    6.5122  -10.4066   24.4164 H   0  0  0  0  0  0  0  0  0  0  0  0
  1  2  1  0
  2  3  1  0
  3  4  1  0
  4  5  2  0
  5  6  1  0
  6  7  1  0
  7  8  1  0
  8  9  2  0
  8 10  1  0
 10 11  1  0
 11 12  1  0
 11 13  1  0
 13 14  1  0
 14 15  1  0
 15 16  2  0
 15 17  1  0
 17 18  1  0
 18 19  1  0
 19 20  1  0
 20 21  1  0
 21 22  1  0
 22 23  2  0
 22 24  1  0
  6  2  2  0
 24 18  1  0
  1 25  1  0
  1 26  1  0
  1 27  1  0
  3 28  1  0
  4 29  1  0
  7 30  1  0
  7 31  1  0
 10 32  1  0
 11 33  1  0
 12 34  1  0
 12 35  1  0
 12 36  1  0
 13 37  1  0
 13 38  1  0
 14 39  1  0
 17 40  1  0
 17 41  1  0
 18 42  1  0
 19 43  1  0
 19 44  1  0
 20 45  1  0
 20 46  1  0
 21 47  1  0
 21 48  1  0
 24 49  1  0
M  END
>  <Energy>  (320) 
717.03776467280773

>  <compound_id>  (320) 
53488

>  <target_id>  (320) 
1

>  <reference_id>  (320) 
98

>  <inspiration_ids>  (320) 
[101, 98]

>  <energy_score>  (320) 
685.5338774156473

>  <distance_score>  (320) 
12.610259633532923

>  <path>  (320) 
/opt/xchem-fragalysis-2/maxwin/BulkDock/SCRATCH/511024/C53488-P98/C53488-P98.minimised.mol

>  <scratch_subdir>  (320) 
/opt/xchem-fragalysis-2/maxwin/BulkDock/SCRATCH/511024/C53488-P98

>  <fragmenstein_runtime>  (320) 
32.424084424972534

>  <fragmenstein_outcome>  (320) 
too moved

>  <fragmenstein_mode>  (320) 
expansion

>  <fragmenstein_error>  (320) 


$$$$
C53489-P101
     RDKit          3D

 39 40  0  0  0  0  0  0  0  0999 V2000
    3.2535  -13.1038   12.0854 C   0  0  0  0  0  0  0  0  0  0  0  0
    4.6101  -13.7730   11.8595 C   0  0  0  0  0  0  0  0  0  0  0  0
    4.8471  -13.9513   10.3558 C   0  0  0  0  0  0  0  0  0  0  0  0
    4.7197  -15.1429   12.5633 C   0  0  0  0  0  0  0  0  0  0  0  0
    4.5634  -15.1646   14.1061 C   0  0  0  0  0  0  0  0  0  0  0  0
    4.1861  -16.6913   14.5673 C   0  0  0  0  0  0  0  0  0  0  0  0
    5.0892  -17.4722   14.7305 O   0  0  0  0  0  0  0  0  0  0  0  0
    2.7000  -16.8960   14.6183 N   0  0  0  0  0  0  0  0  0  0  0  0
    1.8651  -18.1760   14.7908 C   0  0  0  0  0  0  0  0  0  0  0  0
    0.3699  -17.9587   14.4200 C   0  0  0  0  0  0  0  0  0  0  0  0
   -0.3912  -18.9707   15.0951 N   0  0  0  0  0  0  0  0  0  0  0  0
    0.3122  -19.6102   16.0869 C   0  0  0  0  0  0  0  0  0  0  0  0
   -0.1643  -20.4893   16.7867 O   0  0  0  0  0  0  0  0  0  0  0  0
    1.7100  -18.9792   16.1312 C   0  0  0  0  0  0  0  0  0  0  0  0
    5.7775  -14.4709   14.6591 N   0  0  0  0  0  0  0  0  0  0  0  0
    5.8577  -13.1141   14.9448 C   0  0  0  0  0  0  0  0  0  0  0  0
    7.1947  -12.8097   15.0507 C   0  0  0  0  0  0  0  0  0  0  0  0
    7.9475  -13.9237   14.8121 N   0  0  0  0  0  0  0  0  0  0  0  0
    7.0846  -14.8911   14.5671 C   0  0  0  0  0  0  0  0  0  0  0  0
    3.1105  -12.8279   13.1338 H   0  0  0  0  0  0  0  0  0  0  0  0
    3.1728  -12.1827   11.4978 H   0  0  0  0  0  0  0  0  0  0  0  0
    2.4311  -13.7643   11.7907 H   0  0  0  0  0  0  0  0  0  0  0  0
    5.3936  -13.1033   12.2286 H   0  0  0  0  0  0  0  0  0  0  0  0
    4.0890  -14.6026    9.9073 H   0  0  0  0  0  0  0  0  0  0  0  0
    4.8129  -12.9862    9.8392 H   0  0  0  0  0  0  0  0  0  0  0  0
    5.8307  -14.3943   10.1669 H   0  0  0  0  0  0  0  0  0  0  0  0
    5.6715  -15.6152   12.2843 H   0  0  0  0  0  0  0  0  0  0  0  0
    3.9463  -15.7977   12.1370 H   0  0  0  0  0  0  0  0  0  0  0  0
    3.7176  -14.5401   14.3808 H   0  0  0  0  0  0  0  0  0  0  0  0
    2.2358  -15.9990   14.5146 H   0  0  0  0  0  0  0  0  0  0  0  0
    2.3034  -18.8739   14.0648 H   0  0  0  0  0  0  0  0  0  0  0  0
    0.0038  -16.9792   14.7389 H   0  0  0  0  0  0  0  0  0  0  0  0
    0.2113  -18.0484   13.3410 H   0  0  0  0  0  0  0  0  0  0  0  0
   -1.3632  -19.2043   14.9289 H   0  0  0  0  0  0  0  0  0  0  0  0
    1.7471  -18.3547   17.0147 H   0  0  0  0  0  0  0  0  0  0  0  0
    2.4635  -19.7690   16.1918 H   0  0  0  0  0  0  0  0  0  0  0  0
    4.9859  -12.4850   14.9999 H   0  0  0  0  0  0  0  0  0  0  0  0
    7.6505  -11.8506   15.2620 H   0  0  0  0  0  0  0  0  0  0  0  0
    7.3442  -15.9092   14.3050 H   0  0  0  0  0  0  0  0  0  0  0  0
  1  2  1  0
  2  3  1  0
  2  4  1  0
  4  5  1  0
  5  6  1  0
  6  7  2  0
  6  8  1  0
  8  9  1  0
  9 10  1  0
 10 11  1  0
 11 12  1  0
 12 13  2  0
 12 14  1  0
  5 15  1  0
 15 16  1  0
 16 17  2  0
 17 18  1  0
 18 19  2  0
 14  9  1  0
 19 15  1  0
  1 20  1  0
  1 21  1  0
  1 22  1  0
  2 23  1  0
  3 24  1  0
  3 25  1  0
  3 26  1  0
  4 27  1  0
  4 28  1  0
  5 29  1  0
  8 30  1  0
  9 31  1  0
 10 32  1  0
 10 33  1  0
 11 34  1  0
 14 35  1  0
 14 36  1  0
 16 37  1  0
 17 38  1  0
 19 39  1  0
M  END
>  <Energy>  (321) 
33.379751674546711

>  <compound_id>  (321) 
53489

>  <target_id>  (321) 
1

>  <reference_id>  (321) 
101

>  <inspiration_ids>  (321) 
[101, 98]

>  <energy_score>  (321) 
-4.528835438986562

>  <distance_score>  (321) 
15.946387061829167

>  <path>  (321) 
/opt/xchem-fragalysis-2/maxwin/BulkDock/SCRATCH/511024/C53489-P101/C53489-P101.minimised.mol

>  <scratch_subdir>  (321) 
/opt/xchem-fragalysis-2/maxwin/BulkDock/SCRATCH/511024/C53489-P101

>  <fragmenstein_runtime>  (321) 
18.689396142959595

>  <fragmenstein_outcome>  (321) 
too moved

>  <fragmenstein_mode>  (321) 
expansion

>  <fragmenstein_error>  (321) 


$$$$
C53489-P98
     RDKit          3D

 39 40  0  0  0  0  0  0  0  0999 V2000
   -2.7555   -6.3406   16.0282 C   0  0  0  0  0  0  0  0  0  0  0  0
   -2.0893   -7.2987   15.0397 C   0  0  0  0  0  0  0  0  0  0  0  0
   -2.1950   -6.7311   13.6213 C   0  0  0  0  0  0  0  0  0  0  0  0
   -0.6080   -7.5648   15.3846 C   0  0  0  0  0  0  0  0  0  0  0  0
   -0.3968   -8.2381   16.7576 C   0  0  0  0  0  0  0  0  0  0  0  0
   -1.1361   -9.6849   16.8482 C   0  0  0  0  0  0  0  0  0  0  0  0
   -0.7897  -10.5157   16.0476 O   0  0  0  0  0  0  0  0  0  0  0  0
   -2.0690   -9.7807   17.9871 N   0  0  0  0  0  0  0  0  0  0  0  0
   -2.8001  -10.9630   18.5696 C   0  0  0  0  0  0  0  0  0  0  0  0
   -4.1410  -10.6441   19.2604 C   0  0  0  0  0  0  0  0  0  0  0  0
   -4.7503  -11.9224   19.5131 N   0  0  0  0  0  0  0  0  0  0  0  0
   -4.1596  -12.9422   18.7869 C   0  0  0  0  0  0  0  0  0  0  0  0
   -4.4259  -14.1271   18.9312 O   0  0  0  0  0  0  0  0  0  0  0  0
   -3.1670  -12.2671   17.8132 C   0  0  0  0  0  0  0  0  0  0  0  0
    1.1111   -8.1948   16.9369 N   0  0  0  0  0  0  0  0  0  0  0  0
    2.0748   -8.8944   16.2461 C   0  0  0  0  0  0  0  0  0  0  0  0
    3.2714   -8.2565   16.4951 C   0  0  0  0  0  0  0  0  0  0  0  0
    3.0737   -7.1365   17.2538 N   0  0  0  0  0  0  0  0  0  0  0  0
    1.7792   -7.1154   17.4932 C   0  0  0  0  0  0  0  0  0  0  0  0
   -2.8177   -6.7780   17.0289 H   0  0  0  0  0  0  0  0  0  0  0  0
   -3.7790   -6.1087   15.7140 H   0  0  0  0  0  0  0  0  0  0  0  0
   -2.2031   -5.3977   16.1007 H   0  0  0  0  0  0  0  0  0  0  0  0
   -2.6397   -8.2471   15.0564 H   0  0  0  0  0  0  0  0  0  0  0  0
   -1.6719   -5.7725   13.5362 H   0  0  0  0  0  0  0  0  0  0  0  0
   -1.7588   -7.4221   12.8921 H   0  0  0  0  0  0  0  0  0  0  0  0
   -3.2421   -6.5717   13.3428 H   0  0  0  0  0  0  0  0  0  0  0  0
   -0.0625   -6.6123   15.3359 H   0  0  0  0  0  0  0  0  0  0  0  0
   -0.1845   -8.2038   14.5974 H   0  0  0  0  0  0  0  0  0  0  0  0
   -0.7733   -7.6024   17.5663 H   0  0  0  0  0  0  0  0  0  0  0  0
   -2.0590   -8.9066   18.4980 H   0  0  0  0  0  0  0  0  0  0  0  0
   -2.1262  -11.2821   19.3770 H   0  0  0  0  0  0  0  0  0  0  0  0
   -4.0016  -10.1073   20.2031 H   0  0  0  0  0  0  0  0  0  0  0  0
   -4.8060  -10.0652   18.6115 H   0  0  0  0  0  0  0  0  0  0  0  0
   -5.3395  -12.1136   20.3165 H   0  0  0  0  0  0  0  0  0  0  0  0
   -3.6672  -12.0602   16.8627 H   0  0  0  0  0  0  0  0  0  0  0  0
   -2.2901  -12.8974   17.6512 H   0  0  0  0  0  0  0  0  0  0  0  0
    1.8360   -9.7496   15.6313 H   0  0  0  0  0  0  0  0  0  0  0  0
    4.2545   -8.5321   16.1362 H   0  0  0  0  0  0  0  0  0  0  0  0
    1.2594   -6.3443   18.0463 H   0  0  0  0  0  0  0  0  0  0  0  0
  1  2  1  0
  2  3  1  0
  2  4  1  0
  4  5  1  0
  5  6  1  0
  6  7  2  0
  6  8  1  0
  8  9  1  0
  9 10  1  0
 10 11  1  0
 11 12  1  0
 12 13  2  0
 12 14  1  0
  5 15  1  0
 15 16  1  0
 16 17  2  0
 17 18  1  0
 18 19  2  0
 14  9  1  0
 19 15  1  0
  1 20  1  0
  1 21  1  0
  1 22  1  0
  2 23  1  0
  3 24  1  0
  3 25  1  0
  3 26  1  0
  4 27  1  0
  4 28  1  0
  5 29  1  0
  8 30  1  0
  9 31  1  0
 10 32  1  0
 10 33  1  0
 11 34  1  0
 14 35  1  0
 14 36  1  0
 16 37  1  0
 17 38  1  0
 19 39  1  0
M  END
>  <Energy>  (322) 
31.059940211088406

>  <compound_id>  (322) 
53489

>  <target_id>  (322) 
1

>  <reference_id>  (322) 
98

>  <inspiration_ids>  (322) 
[101, 98]

>  <energy_score>  (322) 
-6.8486469024445

>  <distance_score>  (322) 
15.784915357769563

>  <path>  (322) 
/opt/xchem-fragalysis-2/maxwin/BulkDock/SCRATCH/511024/C53489-P98/C53489-P98.minimised.mol

>  <scratch_subdir>  (322) 
/opt/xchem-fragalysis-2/maxwin/BulkDock/SCRATCH/511024/C53489-P98

>  <fragmenstein_runtime>  (322) 
18.1065092086792

>  <fragmenstein_outcome>  (322) 
too moved

>  <fragmenstein_mode>  (322) 
expansion

>  <fragmenstein_error>  (322) 


$$$$
C53490-P101
     RDKit          3D

 54 56  0  0  0  0  0  0  0  0999 V2000
    2.6387   -8.6802   22.5143 C   0  0  0  0  0  0  0  0  0  0  0  0
    3.3409  -10.5763   22.8647 C   0  0  0  0  0  0  0  0  0  0  0  0
    4.6166  -11.2595   22.0463 C   0  0  0  0  0  0  0  0  0  0  0  0
    2.2997  -12.0310   23.4247 C   0  0  0  0  0  0  0  0  0  0  0  0
    1.4612  -13.3095   24.5454 C   0  0  0  0  0  0  0  0  0  0  0  0
   -0.4662  -14.2225   24.1527 C   0  0  0  0  0  0  0  0  0  0  0  0
   -0.5431  -14.5108   22.9749 O   0  0  0  0  0  0  0  0  0  0  0  0
   -1.8978  -14.7638   25.3610 N   0  0  0  0  0  0  0  0  0  0  0  0
   -3.4879  -15.8829   25.1018 C   0  0  0  0  0  0  0  0  0  0  0  0
   -4.3227  -16.5144   26.7100 C   0  0  0  0  0  0  0  0  0  0  0  0
   -4.8877  -18.2634   27.3853 C   0  0  0  0  0  0  0  0  0  0  0  0
   -6.0787  -19.7178   26.8885 N   0  0  0  0  0  0  0  0  0  0  0  0
   -7.6900  -20.9471   27.5753 C   0  0  0  0  0  0  0  0  0  0  0  0
   -9.7565  -21.1568   28.1164 C   0  0  0  0  0  0  0  0  0  0  0  0
  -10.5932  -22.5617   28.0880 C   0  0  0  0  0  0  0  0  0  0  0  0
   -9.7036  -23.4748   27.4044 N   0  0  0  0  0  0  0  0  0  0  0  0
   -8.1366  -22.8977   27.6225 C   0  0  0  0  0  0  0  0  0  0  0  0
   -8.5926  -23.7619   28.4549 O   0  0  0  0  0  0  0  0  0  0  0  0
   -5.0079  -19.2134   25.4562 C   0  0  0  0  0  0  0  0  0  0  0  0
   -3.8010  -17.7685   25.0743 C   0  0  0  0  0  0  0  0  0  0  0  0
    3.2155  -13.8700   24.5640 N   0  0  0  0  0  0  0  0  0  0  0  0
    3.5747  -14.8608   23.7177 C   0  0  0  0  0  0  0  0  0  0  0  0
    4.6219  -15.4958   24.3055 C   0  0  0  0  0  0  0  0  0  0  0  0
    5.0545  -14.8240   25.3690 N   0  0  0  0  0  0  0  0  0  0  0  0
    3.9577  -14.2857   25.7122 C   0  0  0  0  0  0  0  0  0  0  0  0
    2.0562   -8.1537   23.3000 H   0  0  0  0  0  0  0  0  0  0  0  0
    3.4649   -7.9362   22.4739 H   0  0  0  0  0  0  0  0  0  0  0  0
    1.9672   -8.6881   21.6337 H   0  0  0  0  0  0  0  0  0  0  0  0
    4.2156  -10.1051   23.3397 H   0  0  0  0  0  0  0  0  0  0  0  0
    5.4608  -11.0807   22.7587 H   0  0  0  0  0  0  0  0  0  0  0  0
    5.2914  -10.9557   21.2287 H   0  0  0  0  0  0  0  0  0  0  0  0
    4.2667  -12.2092   21.6163 H   0  0  0  0  0  0  0  0  0  0  0  0
    2.9795  -12.6735   22.8940 H   0  0  0  0  0  0  0  0  0  0  0  0
    1.3784  -11.7929   22.8830 H   0  0  0  0  0  0  0  0  0  0  0  0
    1.4597  -13.1050   25.6394 H   0  0  0  0  0  0  0  0  0  0  0  0
   -1.7200  -14.3709   26.2787 H   0  0  0  0  0  0  0  0  0  0  0  0
   -4.2393  -15.3074   24.5545 H   0  0  0  0  0  0  0  0  0  0  0  0
   -5.2009  -15.8680   26.8361 H   0  0  0  0  0  0  0  0  0  0  0  0
   -3.5889  -16.2147   27.4728 H   0  0  0  0  0  0  0  0  0  0  0  0
   -5.0279  -17.8905   28.4132 H   0  0  0  0  0  0  0  0  0  0  0  0
   -3.9374  -18.8260   27.4528 H   0  0  0  0  0  0  0  0  0  0  0  0
   -6.8763  -21.6055   27.9544 H   0  0  0  0  0  0  0  0  0  0  0  0
  -10.3111  -20.9058   27.2273 H   0  0  0  0  0  0  0  0  0  0  0  0
  -10.1442  -20.7894   29.1024 H   0  0  0  0  0  0  0  0  0  0  0  0
  -11.5108  -22.4837   27.4968 H   0  0  0  0  0  0  0  0  0  0  0  0
  -10.9234  -22.9427   29.0585 H   0  0  0  0  0  0  0  0  0  0  0  0
   -9.7656  -24.4118   27.7843 H   0  0  0  0  0  0  0  0  0  0  0  0
   -4.3922  -20.1101   25.2929 H   0  0  0  0  0  0  0  0  0  0  0  0
   -5.6242  -18.9774   24.5734 H   0  0  0  0  0  0  0  0  0  0  0  0
   -4.2556  -17.7014   24.0802 H   0  0  0  0  0  0  0  0  0  0  0  0
   -2.8272  -18.2457   25.2020 H   0  0  0  0  0  0  0  0  0  0  0  0
    3.1191  -14.8747   22.7847 H   0  0  0  0  0  0  0  0  0  0  0  0
    5.1954  -16.3379   24.0504 H   0  0  0  0  0  0  0  0  0  0  0  0
    3.6304  -14.2399   26.7454 H   0  0  0  0  0  0  0  0  0  0  0  0
  1  2  1  0
  2  3  1  0
  2  4  1  0
  4  5  1  0
  5  6  1  0
  6  7  2  0
  6  8  1  0
  8  9  1  0
  9 10  1  0
 10 11  1  0
 11 12  1  0
 12 13  1  0
 13 14  1  0
 14 15  1  0
 15 16  1  0
 16 17  1  0
 17 18  2  0
 12 19  1  0
 19 20  1  0
  5 21  1  0
 21 22  1  0
 22 23  2  0
 23 24  1  0
 24 25  2  0
 20  9  1  0
 25 21  1  0
 17 13  1  0
  1 26  1  0
  1 27  1  0
  1 28  1  0
  2 29  1  0
  3 30  1  0
  3 31  1  0
  3 32  1  0
  4 33  1  0
  4 34  1  0
  5 35  1  0
  8 36  1  0
  9 37  1  0
 10 38  1  0
 10 39  1  0
 11 40  1  0
 11 41  1  0
 13 42  1  0
 14 43  1  0
 14 44  1  0
 15 45  1  0
 15 46  1  0
 16 47  1  0
 19 48  1  0
 19 49  1  0
 20 50  1  0
 20 51  1  0
 22 52  1  0
 23 53  1  0
 25 54  1  0
M  END
>  <Energy>  (323) 
1749.5973949165973

>  <compound_id>  (323) 
53490

>  <target_id>  (323) 
1

>  <reference_id>  (323) 
101

>  <inspiration_ids>  (323) 
[101, 98]

>  <energy_score>  (323) 
1661.8046468844486

>  <distance_score>  (323) 
14.684113011820104

>  <path>  (323) 
/opt/xchem-fragalysis-2/maxwin/BulkDock/SCRATCH/511024/C53490-P101/C53490-P101.minimised.mol

>  <scratch_subdir>  (323) 
/opt/xchem-fragalysis-2/maxwin/BulkDock/SCRATCH/511024/C53490-P101

>  <fragmenstein_runtime>  (323) 
41.00551748275757

>  <fragmenstein_outcome>  (323) 
too moved

>  <fragmenstein_mode>  (323) 
expansion

>  <fragmenstein_error>  (323) 


$$$$
C53490-P98
     RDKit          3D

 54 56  0  0  0  0  0  0  0  0999 V2000
    3.4765  -16.9523   14.4541 C   0  0  0  0  0  0  0  0  0  0  0  0
    3.1156  -15.5843   15.0781 C   0  0  0  0  0  0  0  0  0  0  0  0
    2.3996  -14.8268   13.9225 C   0  0  0  0  0  0  0  0  0  0  0  0
    2.1061  -15.6838   16.3588 C   0  0  0  0  0  0  0  0  0  0  0  0
    1.9858  -15.5178   18.3112 C   0  0  0  0  0  0  0  0  0  0  0  0
    0.5755  -16.1942   19.8576 C   0  0  0  0  0  0  0  0  0  0  0  0
    0.7369  -15.7817   20.9549 O   0  0  0  0  0  0  0  0  0  0  0  0
   -0.8796  -17.2279   19.4013 N   0  0  0  0  0  0  0  0  0  0  0  0
   -2.2123  -17.6661   20.2569 C   0  0  0  0  0  0  0  0  0  0  0  0
   -3.8263  -17.2223   20.6063 C   0  0  0  0  0  0  0  0  0  0  0  0
   -4.6799  -18.3433   21.2643 C   0  0  0  0  0  0  0  0  0  0  0  0
   -4.3519  -19.7037   20.8472 N   0  0  0  0  0  0  0  0  0  0  0  0
   -3.4459  -20.4386   21.7510 C   0  0  0  0  0  0  0  0  0  0  0  0
   -4.0706  -20.6414   23.1460 C   0  0  0  0  0  0  0  0  0  0  0  0
   -3.4080  -21.8898   23.6846 C   0  0  0  0  0  0  0  0  0  0  0  0
   -3.2245  -22.6819   22.5179 N   0  0  0  0  0  0  0  0  0  0  0  0
   -3.1815  -21.9158   21.3651 C   0  0  0  0  0  0  0  0  0  0  0  0
   -2.8986  -22.3933   20.2794 O   0  0  0  0  0  0  0  0  0  0  0  0
   -3.9398  -19.6691   19.4494 C   0  0  0  0  0  0  0  0  0  0  0  0
   -2.8862  -18.6053   19.0468 C   0  0  0  0  0  0  0  0  0  0  0  0
    3.7761  -14.8472   18.3399 N   0  0  0  0  0  0  0  0  0  0  0  0
    4.9419  -15.1305   17.5079 C   0  0  0  0  0  0  0  0  0  0  0  0
    5.8996  -14.1418   17.5422 C   0  0  0  0  0  0  0  0  0  0  0  0
    5.5311  -13.1491   18.3422 N   0  0  0  0  0  0  0  0  0  0  0  0
    4.3816  -13.5449   18.8394 C   0  0  0  0  0  0  0  0  0  0  0  0
    2.5812  -17.5136   14.1639 H   0  0  0  0  0  0  0  0  0  0  0  0
    4.0595  -17.5715   15.1272 H   0  0  0  0  0  0  0  0  0  0  0  0
    4.0843  -16.8145   13.5521 H   0  0  0  0  0  0  0  0  0  0  0  0
    4.0558  -15.0692   15.2533 H   0  0  0  0  0  0  0  0  0  0  0  0
    1.5014  -15.3648   13.5982 H   0  0  0  0  0  0  0  0  0  0  0  0
    3.0635  -14.7292   13.0560 H   0  0  0  0  0  0  0  0  0  0  0  0
    2.0934  -13.8169   14.2083 H   0  0  0  0  0  0  0  0  0  0  0  0
    1.9188  -16.7523   16.1426 H   0  0  0  0  0  0  0  0  0  0  0  0
    1.2795  -15.0582   16.0066 H   0  0  0  0  0  0  0  0  0  0  0  0
    1.7242  -14.4573   18.2178 H   0  0  0  0  0  0  0  0  0  0  0  0
   -0.7786  -17.5432   18.4419 H   0  0  0  0  0  0  0  0  0  0  0  0
   -2.2635  -16.5736   20.0815 H   0  0  0  0  0  0  0  0  0  0  0  0
   -4.3359  -16.8983   19.6826 H   0  0  0  0  0  0  0  0  0  0  0  0
   -3.9425  -16.3235   21.2202 H   0  0  0  0  0  0  0  0  0  0  0  0
   -4.7047  -18.2318   22.3498 H   0  0  0  0  0  0  0  0  0  0  0  0
   -5.7220  -18.1568   20.9687 H   0  0  0  0  0  0  0  0  0  0  0  0
   -2.4804  -19.9408   21.8625 H   0  0  0  0  0  0  0  0  0  0  0  0
   -3.9412  -19.7898   23.8184 H   0  0  0  0  0  0  0  0  0  0  0  0
   -5.1428  -20.8290   23.0383 H   0  0  0  0  0  0  0  0  0  0  0  0
   -4.0271  -22.4231   24.4101 H   0  0  0  0  0  0  0  0  0  0  0  0
   -2.4257  -21.6777   24.1181 H   0  0  0  0  0  0  0  0  0  0  0  0
   -2.9829  -23.6645   22.4795 H   0  0  0  0  0  0  0  0  0  0  0  0
   -4.8427  -19.4603   18.8564 H   0  0  0  0  0  0  0  0  0  0  0  0
   -3.6301  -20.6432   19.0680 H   0  0  0  0  0  0  0  0  0  0  0  0
   -2.1565  -19.1038   18.4033 H   0  0  0  0  0  0  0  0  0  0  0  0
   -3.3389  -17.9221   18.3080 H   0  0  0  0  0  0  0  0  0  0  0  0
    5.0358  -15.9529   16.8322 H   0  0  0  0  0  0  0  0  0  0  0  0
    6.8223  -14.1117   16.9792 H   0  0  0  0  0  0  0  0  0  0  0  0
    4.0100  -13.0642   19.7233 H   0  0  0  0  0  0  0  0  0  0  0  0
  1  2  1  0
  2  3  1  0
  2  4  1  0
  4  5  1  0
  5  6  1  0
  6  7  2  0
  6  8  1  0
  8  9  1  0
  9 10  1  0
 10 11  1  0
 11 12  1  0
 12 13  1  0
 13 14  1  0
 14 15  1  0
 15 16  1  0
 16 17  1  0
 17 18  2  0
 12 19  1  0
 19 20  1  0
  5 21  1  0
 21 22  1  0
 22 23  2  0
 23 24  1  0
 24 25  2  0
 20  9  1  0
 25 21  1  0
 17 13  1  0
  1 26  1  0
  1 27  1  0
  1 28  1  0
  2 29  1  0
  3 30  1  0
  3 31  1  0
  3 32  1  0
  4 33  1  0
  4 34  1  0
  5 35  1  0
  8 36  1  0
  9 37  1  0
 10 38  1  0
 10 39  1  0
 11 40  1  0
 11 41  1  0
 13 42  1  0
 14 43  1  0
 14 44  1  0
 15 45  1  0
 15 46  1  0
 16 47  1  0
 19 48  1  0
 19 49  1  0
 20 50  1  0
 20 51  1  0
 22 52  1  0
 23 53  1  0
 25 54  1  0
M  END
>  <Energy>  (324) 
549.38062898479984

>  <compound_id>  (324) 
53490

>  <target_id>  (324) 
1

>  <reference_id>  (324) 
98

>  <inspiration_ids>  (324) 
[101, 98]

>  <energy_score>  (324) 
461.58788095262344

>  <distance_score>  (324) 
14.53319369754497

>  <path>  (324) 
/opt/xchem-fragalysis-2/maxwin/BulkDock/SCRATCH/511024/C53490-P98/C53490-P98.minimised.mol

>  <scratch_subdir>  (324) 
/opt/xchem-fragalysis-2/maxwin/BulkDock/SCRATCH/511024/C53490-P98

>  <fragmenstein_runtime>  (324) 
47.32981634140015

>  <fragmenstein_outcome>  (324) 
too moved

>  <fragmenstein_mode>  (324) 
expansion

>  <fragmenstein_error>  (324) 


$$$$
C53491-P101
     RDKit          3D

 46 47  0  0  0  0  0  0  0  0999 V2000
   -2.0100  -14.5662   20.8855 C   0  0  0  0  0  0  0  0  0  0  0  0
   -0.7922  -14.5252   22.4417 C   0  0  0  0  0  0  0  0  0  0  0  0
   -1.2844  -15.4097   23.4290 C   0  0  0  0  0  0  0  0  0  0  0  0
   -0.3980  -16.4021   21.7033 C   0  0  0  0  0  0  0  0  0  0  0  0
    0.7795  -16.1815   20.2915 N   0  0  0  0  0  0  0  0  0  0  0  0
    2.2311  -15.1510   20.1121 C   0  0  0  0  0  0  0  0  0  0  0  0
    2.6766  -14.5008   20.9897 O   0  0  0  0  0  0  0  0  0  0  0  0
    3.3120  -14.9202   18.5131 C   0  0  0  0  0  0  0  0  0  0  0  0
    4.0850  -13.3842   18.5636 C   0  0  0  0  0  0  0  0  0  0  0  0
    5.3837  -13.2576   17.9919 N   0  0  0  0  0  0  0  0  0  0  0  0
    6.0404  -14.4121   18.1903 C   0  0  0  0  0  0  0  0  0  0  0  0
    7.2567  -14.5147   18.2029 O   0  0  0  0  0  0  0  0  0  0  0  0
    4.9738  -15.5050   18.2452 C   0  0  0  0  0  0  0  0  0  0  0  0
   -2.3406  -16.1884   24.8002 N   0  0  0  0  0  0  0  0  0  0  0  0
   -2.0889  -17.7465   25.7710 C   0  0  0  0  0  0  0  0  0  0  0  0
   -1.2049  -18.5921   25.5943 O   0  0  0  0  0  0  0  0  0  0  0  0
   -2.9430  -18.1160   27.1118 C   0  0  0  0  0  0  0  0  0  0  0  0
   -3.3660  -19.5564   27.2192 C   0  0  0  0  0  0  0  0  0  0  0  0
   -4.6377  -20.0372   27.3957 C   0  0  0  0  0  0  0  0  0  0  0  0
   -4.6722  -21.4024   27.3899 N   0  0  0  0  0  0  0  0  0  0  0  0
   -3.4239  -21.7757   27.2809 C   0  0  0  0  0  0  0  0  0  0  0  0
   -2.5868  -20.6931   27.2470 N   0  0  0  0  0  0  0  0  0  0  0  0
   -1.1489  -20.8059   27.3017 C   0  0  0  0  0  0  0  0  0  0  0  0
   -2.7153  -15.3934   20.7224 H   0  0  0  0  0  0  0  0  0  0  0  0
   -2.1737  -13.5147   20.6167 H   0  0  0  0  0  0  0  0  0  0  0  0
   -1.6741  -14.9961   19.8986 H   0  0  0  0  0  0  0  0  0  0  0  0
   -0.3994  -13.6567   22.9738 H   0  0  0  0  0  0  0  0  0  0  0  0
    0.2359  -14.7061   22.2053 H   0  0  0  0  0  0  0  0  0  0  0  0
   -2.3504  -15.0912   23.3364 H   0  0  0  0  0  0  0  0  0  0  0  0
   -0.2907  -17.5048   21.7604 H   0  0  0  0  0  0  0  0  0  0  0  0
   -1.1552  -16.5934   20.8953 H   0  0  0  0  0  0  0  0  0  0  0  0
    0.6411  -16.6931   19.4603 H   0  0  0  0  0  0  0  0  0  0  0  0
    2.7028  -15.1225   17.6496 H   0  0  0  0  0  0  0  0  0  0  0  0
    3.5242  -12.6223   18.0486 H   0  0  0  0  0  0  0  0  0  0  0  0
    4.2608  -13.0863   19.6036 H   0  0  0  0  0  0  0  0  0  0  0  0
    5.8945  -12.3911   18.1042 H   0  0  0  0  0  0  0  0  0  0  0  0
    5.3390  -16.2429   18.9582 H   0  0  0  0  0  0  0  0  0  0  0  0
    5.0671  -15.9185   17.2440 H   0  0  0  0  0  0  0  0  0  0  0  0
   -3.1693  -15.7390   25.0993 H   0  0  0  0  0  0  0  0  0  0  0  0
   -2.1543  -18.0094   27.8794 H   0  0  0  0  0  0  0  0  0  0  0  0
   -3.6606  -17.4070   27.5381 H   0  0  0  0  0  0  0  0  0  0  0  0
   -5.5359  -19.4387   27.4882 H   0  0  0  0  0  0  0  0  0  0  0  0
   -3.0676  -22.7970   27.2505 H   0  0  0  0  0  0  0  0  0  0  0  0
   -0.8877  -21.6547   27.9407 H   0  0  0  0  0  0  0  0  0  0  0  0
   -0.7760  -20.9800   26.2899 H   0  0  0  0  0  0  0  0  0  0  0  0
   -0.7214  -19.8998   27.7352 H   0  0  0  0  0  0  0  0  0  0  0  0
  1  2  1  0
  2  3  1  0
  3  4  1  0
  4  5  1  0
  5  6  1  0
  6  7  2  0
  6  8  1  0
  8  9  1  0
  9 10  1  0
 10 11  1  0
 11 12  2  0
 11 13  1  0
  3 14  1  0
 14 15  1  0
 15 16  2  0
 15 17  1  0
 17 18  1  0
 18 19  2  0
 19 20  1  0
 20 21  2  0
 21 22  1  0
 22 23  1  0
 13  8  1  0
 22 18  1  0
  1 24  1  0
  1 25  1  0
  1 26  1  0
  2 27  1  0
  2 28  1  0
  3 29  1  0
  4 30  1  0
  4 31  1  0
  5 32  1  0
  8 33  1  0
  9 34  1  0
  9 35  1  0
 10 36  1  0
 13 37  1  0
 13 38  1  0
 14 39  1  0
 17 40  1  0
 17 41  1  0
 19 42  1  0
 21 43  1  0
 23 44  1  0
 23 45  1  0
 23 46  1  0
M  END
>  <Energy>  (325) 
691.57609829254557

>  <compound_id>  (325) 
53491

>  <target_id>  (325) 
1

>  <reference_id>  (325) 
101

>  <inspiration_ids>  (325) 
[101, 98]

>  <energy_score>  (325) 
680.6811877112812

>  <distance_score>  (325) 
13.17420771970258

>  <path>  (325) 
/opt/xchem-fragalysis-2/maxwin/BulkDock/SCRATCH/511024/C53491-P101/C53491-P101.minimised.mol

>  <scratch_subdir>  (325) 
/opt/xchem-fragalysis-2/maxwin/BulkDock/SCRATCH/511024/C53491-P101

>  <fragmenstein_runtime>  (325) 
48.676318883895874

>  <fragmenstein_outcome>  (325) 
too moved

>  <fragmenstein_mode>  (325) 
expansion

>  <fragmenstein_error>  (325) 


$$$$
C53491-P98
     RDKit          3D

 46 47  0  0  0  0  0  0  0  0999 V2000
   -1.4752  -11.8437   21.4433 C   0  0  0  0  0  0  0  0  0  0  0  0
   -0.4181  -13.1339   22.7554 C   0  0  0  0  0  0  0  0  0  0  0  0
   -0.7397  -14.2790   24.4428 C   0  0  0  0  0  0  0  0  0  0  0  0
    0.8666  -13.5688   25.6556 C   0  0  0  0  0  0  0  0  0  0  0  0
    2.3580  -13.7877   26.6996 N   0  0  0  0  0  0  0  0  0  0  0  0
    3.8525  -14.3955   26.3380 C   0  0  0  0  0  0  0  0  0  0  0  0
    4.2646  -14.9153   25.3127 O   0  0  0  0  0  0  0  0  0  0  0  0
    4.8536  -14.3410   27.6198 C   0  0  0  0  0  0  0  0  0  0  0  0
    5.1299  -13.0859   28.4555 C   0  0  0  0  0  0  0  0  0  0  0  0
    6.0671  -12.3087   27.6843 N   0  0  0  0  0  0  0  0  0  0  0  0
    6.7943  -13.1275   26.8385 C   0  0  0  0  0  0  0  0  0  0  0  0
    7.6317  -12.7456   26.0387 O   0  0  0  0  0  0  0  0  0  0  0  0
    6.3255  -14.5547   27.1525 C   0  0  0  0  0  0  0  0  0  0  0  0
   -2.1974  -15.6607   24.9957 N   0  0  0  0  0  0  0  0  0  0  0  0
   -2.0510  -17.4981   25.7894 C   0  0  0  0  0  0  0  0  0  0  0  0
   -0.9374  -18.0138   25.9175 O   0  0  0  0  0  0  0  0  0  0  0  0
   -3.1535  -18.4677   26.4958 C   0  0  0  0  0  0  0  0  0  0  0  0
   -3.3814  -19.9786   26.3381 C   0  0  0  0  0  0  0  0  0  0  0  0
   -4.4576  -20.6502   26.8981 C   0  0  0  0  0  0  0  0  0  0  0  0
   -4.4358  -21.9878   26.6595 N   0  0  0  0  0  0  0  0  0  0  0  0
   -3.3235  -22.1729   25.9918 C   0  0  0  0  0  0  0  0  0  0  0  0
   -2.6132  -21.0033   25.8404 N   0  0  0  0  0  0  0  0  0  0  0  0
   -1.2584  -20.9551   25.3495 C   0  0  0  0  0  0  0  0  0  0  0  0
   -2.5038  -11.4654   21.4949 H   0  0  0  0  0  0  0  0  0  0  0  0
   -0.9385  -10.8593   21.4535 H   0  0  0  0  0  0  0  0  0  0  0  0
   -1.5586  -12.2516   20.4321 H   0  0  0  0  0  0  0  0  0  0  0  0
    0.2331  -12.1371   22.8107 H   0  0  0  0  0  0  0  0  0  0  0  0
   -0.2687  -14.0967   22.2549 H   0  0  0  0  0  0  0  0  0  0  0  0
    0.2045  -14.6721   24.3267 H   0  0  0  0  0  0  0  0  0  0  0  0
    0.6489  -12.5991   26.1300 H   0  0  0  0  0  0  0  0  0  0  0  0
    1.5522  -13.1522   24.8435 H   0  0  0  0  0  0  0  0  0  0  0  0
    2.3829  -13.3595   27.5796 H   0  0  0  0  0  0  0  0  0  0  0  0
    4.5323  -15.1669   28.2652 H   0  0  0  0  0  0  0  0  0  0  0  0
    5.6537  -13.3662   29.3801 H   0  0  0  0  0  0  0  0  0  0  0  0
    4.2586  -12.5246   28.7837 H   0  0  0  0  0  0  0  0  0  0  0  0
    6.2822  -11.3235   27.7738 H   0  0  0  0  0  0  0  0  0  0  0  0
    6.4206  -15.2880   26.3607 H   0  0  0  0  0  0  0  0  0  0  0  0
    6.9394  -14.9200   27.9871 H   0  0  0  0  0  0  0  0  0  0  0  0
   -3.1636  -15.4318   24.8866 H   0  0  0  0  0  0  0  0  0  0  0  0
   -2.4485  -18.6470   27.3529 H   0  0  0  0  0  0  0  0  0  0  0  0
   -3.8296  -18.0375   27.2748 H   0  0  0  0  0  0  0  0  0  0  0  0
   -5.2528  -20.1757   27.4481 H   0  0  0  0  0  0  0  0  0  0  0  0
   -2.9622  -23.1262   25.6271 H   0  0  0  0  0  0  0  0  0  0  0  0
   -0.6259  -20.4913   26.1085 H   0  0  0  0  0  0  0  0  0  0  0  0
   -1.2461  -20.3957   24.4165 H   0  0  0  0  0  0  0  0  0  0  0  0
   -0.9007  -21.9714   25.1619 H   0  0  0  0  0  0  0  0  0  0  0  0
  1  2  1  0
  2  3  1  0
  3  4  1  0
  4  5  1  0
  5  6  1  0
  6  7  2  0
  6  8  1  0
  8  9  1  0
  9 10  1  0
 10 11  1  0
 11 12  2  0
 11 13  1  0
  3 14  1  0
 14 15  1  0
 15 16  2  0
 15 17  1  0
 17 18  1  0
 18 19  2  0
 19 20  1  0
 20 21  2  0
 21 22  1  0
 22 23  1  0
 13  8  1  0
 22 18  1  0
  1 24  1  0
  1 25  1  0
  1 26  1  0
  2 27  1  0
  2 28  1  0
  3 29  1  0
  4 30  1  0
  4 31  1  0
  5 32  1  0
  8 33  1  0
  9 34  1  0
  9 35  1  0
 10 36  1  0
 13 37  1  0
 13 38  1  0
 14 39  1  0
 17 40  1  0
 17 41  1  0
 19 42  1  0
 21 43  1  0
 23 44  1  0
 23 45  1  0
 23 46  1  0
M  END
>  <Energy>  (326) 
750.29814143620388

>  <compound_id>  (326) 
53491

>  <target_id>  (326) 
1

>  <reference_id>  (326) 
98

>  <inspiration_ids>  (326) 
[101, 98]

>  <energy_score>  (326) 
739.4032308549497

>  <distance_score>  (326) 
14.637536738531862

>  <path>  (326) 
/opt/xchem-fragalysis-2/maxwin/BulkDock/SCRATCH/511024/C53491-P98/C53491-P98.minimised.mol

>  <scratch_subdir>  (326) 
/opt/xchem-fragalysis-2/maxwin/BulkDock/SCRATCH/511024/C53491-P98

>  <fragmenstein_runtime>  (326) 
32.00391459465027

>  <fragmenstein_outcome>  (326) 
too moved

>  <fragmenstein_mode>  (326) 
expansion

>  <fragmenstein_error>  (326) 


$$$$
C53492-P101
     RDKit          3D

 34 35  0  0  0  0  0  0  0  0999 V2000
    8.0719  -10.2519   23.3043 O   0  0  0  0  0  0  0  0  0  0  0  0
    8.7400  -11.2836   23.3009 C   0  0  0  0  0  0  0  0  0  0  0  0
   10.0316  -11.3527   22.5450 C   0  0  0  0  0  0  0  0  0  0  0  0
   11.0202  -12.1055   23.3973 C   0  0  0  0  0  0  0  0  0  0  0  0
   10.5398  -13.5446   23.5699 C   0  0  0  0  0  0  0  0  0  0  0  0
    9.0529  -13.7431   24.1717 C   0  0  0  0  0  0  0  0  0  0  0  0
    8.3835  -15.6243   23.7937 C   0  0  0  0  0  0  0  0  0  0  0  0
    6.6853  -16.6452   23.8856 N   0  0  0  0  0  0  0  0  0  0  0  0
    5.0849  -16.1599   24.3935 C   0  0  0  0  0  0  0  0  0  0  0  0
    4.6585  -15.0588   24.7108 O   0  0  0  0  0  0  0  0  0  0  0  0
    3.7398  -17.5414   24.6950 C   0  0  0  0  0  0  0  0  0  0  0  0
    3.3720  -17.4744   23.4462 F   0  0  0  0  0  0  0  0  0  0  0  0
    2.9466  -18.5057   25.3401 C   0  0  0  0  0  0  0  0  0  0  0  0
    2.4559  -19.0592   26.5706 C   0  0  0  0  0  0  0  0  0  0  0  0
    1.6969  -20.2122   26.7802 C   0  0  0  0  0  0  0  0  0  0  0  0
    1.0567  -20.1958   27.9918 N   0  0  0  0  0  0  0  0  0  0  0  0
    1.4338  -19.0664   28.5418 C   0  0  0  0  0  0  0  0  0  0  0  0
    2.3036  -18.3653   27.7407 N   0  0  0  0  0  0  0  0  0  0  0  0
    8.3211  -12.4279   23.9571 N   0  0  0  0  0  0  0  0  0  0  0  0
    9.8589  -11.8377   21.5788 H   0  0  0  0  0  0  0  0  0  0  0  0
   10.3938  -10.3350   22.3648 H   0  0  0  0  0  0  0  0  0  0  0  0
   11.1306  -11.6333   24.3812 H   0  0  0  0  0  0  0  0  0  0  0  0
   12.0067  -12.1024   22.9203 H   0  0  0  0  0  0  0  0  0  0  0  0
   11.2665  -14.0561   24.2103 H   0  0  0  0  0  0  0  0  0  0  0  0
   10.6133  -14.0195   22.5907 H   0  0  0  0  0  0  0  0  0  0  0  0
    9.1695  -13.6350   25.2416 H   0  0  0  0  0  0  0  0  0  0  0  0
    8.4708  -14.9154   23.0134 H   0  0  0  0  0  0  0  0  0  0  0  0
    8.3823  -15.5447   24.8945 H   0  0  0  0  0  0  0  0  0  0  0  0
    6.6895  -17.5932   23.6185 H   0  0  0  0  0  0  0  0  0  0  0  0
    2.5121  -19.1472   24.5776 H   0  0  0  0  0  0  0  0  0  0  0  0
    1.5182  -21.0096   26.0685 H   0  0  0  0  0  0  0  0  0  0  0  0
    1.1229  -18.6972   29.5097 H   0  0  0  0  0  0  0  0  0  0  0  0
    2.6894  -17.4517   27.9342 H   0  0  0  0  0  0  0  0  0  0  0  0
    7.4730  -12.2755   24.4916 H   0  0  0  0  0  0  0  0  0  0  0  0
  1  2  2  0
  2  3  1  0
  3  4  1  0
  4  5  1  0
  5  6  1  0
  6  7  1  0
  7  8  1  0
  8  9  1  0
  9 10  2  0
  9 11  1  0
 11 12  1  0
 11 13  2  3
 13 14  1  0
 14 15  2  0
 15 16  1  0
 16 17  2  0
 17 18  1  0
  6 19  1  0
 19  2  1  0
 18 14  1  0
  3 20  1  0
  3 21  1  0
  4 22  1  0
  4 23  1  0
  5 24  1  0
  5 25  1  0
  6 26  1  0
  7 27  1  0
  7 28  1  0
  8 29  1  0
 13 30  1  0
 15 31  1  0
 17 32  1  0
 18 33  1  0
 19 34  1  0
M  END
>  <Energy>  (327) 
384.53807090009769

>  <compound_id>  (327) 
53492

>  <target_id>  (327) 
1

>  <reference_id>  (327) 
101

>  <inspiration_ids>  (327) 
[101, 98]

>  <energy_score>  (327) 
350.59905670538075

>  <distance_score>  (327) 
13.768065171980718

>  <path>  (327) 
/opt/xchem-fragalysis-2/maxwin/BulkDock/SCRATCH/511024/C53492-P101/C53492-P101.minimised.mol

>  <scratch_subdir>  (327) 
/opt/xchem-fragalysis-2/maxwin/BulkDock/SCRATCH/511024/C53492-P101

>  <fragmenstein_runtime>  (327) 
17.984665870666504

>  <fragmenstein_outcome>  (327) 
too moved

>  <fragmenstein_mode>  (327) 
expansion

>  <fragmenstein_error>  (327) 


$$$$
C53492-P98
     RDKit          3D

 34 35  0  0  0  0  0  0  0  0999 V2000
   11.4529  -12.3576   19.3859 O   0  0  0  0  0  0  0  0  0  0  0  0
   10.8717  -13.2135   18.7142 C   0  0  0  0  0  0  0  0  0  0  0  0
   10.3903  -12.9010   17.3192 C   0  0  0  0  0  0  0  0  0  0  0  0
    9.1638  -13.7133   16.9515 C   0  0  0  0  0  0  0  0  0  0  0  0
    9.4222  -15.2056   17.1812 C   0  0  0  0  0  0  0  0  0  0  0  0
    9.7030  -15.5056   18.6662 C   0  0  0  0  0  0  0  0  0  0  0  0
   10.1368  -17.0500   18.8937 C   0  0  0  0  0  0  0  0  0  0  0  0
    9.2797  -18.0987   19.5537 N   0  0  0  0  0  0  0  0  0  0  0  0
    7.8432  -18.2498   19.6151 C   0  0  0  0  0  0  0  0  0  0  0  0
    6.9674  -17.5337   19.2223 O   0  0  0  0  0  0  0  0  0  0  0  0
    7.3779  -19.6777   20.2912 C   0  0  0  0  0  0  0  0  0  0  0  0
    8.1920  -20.7111   19.9826 F   0  0  0  0  0  0  0  0  0  0  0  0
    6.1604  -19.8593   20.8901 C   0  0  0  0  0  0  0  0  0  0  0  0
    5.3498  -21.0430   21.1967 C   0  0  0  0  0  0  0  0  0  0  0  0
    5.4510  -22.4185   21.3024 C   0  0  0  0  0  0  0  0  0  0  0  0
    4.2647  -23.0113   21.7164 N   0  0  0  0  0  0  0  0  0  0  0  0
    3.4093  -22.0247   21.8299 C   0  0  0  0  0  0  0  0  0  0  0  0
    4.0063  -20.8328   21.5349 N   0  0  0  0  0  0  0  0  0  0  0  0
   10.7250  -14.5198   19.1566 N   0  0  0  0  0  0  0  0  0  0  0  0
   11.2135  -13.1053   16.6255 H   0  0  0  0  0  0  0  0  0  0  0  0
   10.1518  -11.8334   17.2604 H   0  0  0  0  0  0  0  0  0  0  0  0
    8.9072  -13.5396   15.9006 H   0  0  0  0  0  0  0  0  0  0  0  0
    8.3047  -13.3940   17.5543 H   0  0  0  0  0  0  0  0  0  0  0  0
    8.5538  -15.7868   16.8500 H   0  0  0  0  0  0  0  0  0  0  0  0
   10.2751  -15.5196   16.5661 H   0  0  0  0  0  0  0  0  0  0  0  0
    8.7900  -15.3005   19.2310 H   0  0  0  0  0  0  0  0  0  0  0  0
   10.4039  -17.4840   17.9232 H   0  0  0  0  0  0  0  0  0  0  0  0
   11.0542  -17.0502   19.4945 H   0  0  0  0  0  0  0  0  0  0  0  0
    9.7158  -18.9412   19.9125 H   0  0  0  0  0  0  0  0  0  0  0  0
    5.6607  -18.9104   21.0935 H   0  0  0  0  0  0  0  0  0  0  0  0
    6.3303  -23.0225   21.1209 H   0  0  0  0  0  0  0  0  0  0  0  0
    2.3668  -22.0969   22.1062 H   0  0  0  0  0  0  0  0  0  0  0  0
    3.5341  -19.9410   21.4916 H   0  0  0  0  0  0  0  0  0  0  0  0
   10.9712  -14.5872   20.1374 H   0  0  0  0  0  0  0  0  0  0  0  0
  1  2  2  0
  2  3  1  0
  3  4  1  0
  4  5  1  0
  5  6  1  0
  6  7  1  0
  7  8  1  0
  8  9  1  0
  9 10  2  0
  9 11  1  0
 11 12  1  0
 11 13  2  3
 13 14  1  0
 14 15  2  0
 15 16  1  0
 16 17  2  0
 17 18  1  0
  6 19  1  0
 19  2  1  0
 18 14  1  0
  3 20  1  0
  3 21  1  0
  4 22  1  0
  4 23  1  0
  5 24  1  0
  5 25  1  0
  6 26  1  0
  7 27  1  0
  7 28  1  0
  8 29  1  0
 13 30  1  0
 15 31  1  0
 17 32  1  0
 18 33  1  0
 19 34  1  0
M  END
>  <Energy>  (328) 
32.989609548197762

>  <compound_id>  (328) 
53492

>  <target_id>  (328) 
1

>  <reference_id>  (328) 
98

>  <inspiration_ids>  (328) 
[101, 98]

>  <energy_score>  (328) 
-0.9494046465121642

>  <distance_score>  (328) 
14.791968453815224

>  <path>  (328) 
/opt/xchem-fragalysis-2/maxwin/BulkDock/SCRATCH/511024/C53492-P98/C53492-P98.minimised.mol

>  <scratch_subdir>  (328) 
/opt/xchem-fragalysis-2/maxwin/BulkDock/SCRATCH/511024/C53492-P98

>  <fragmenstein_runtime>  (328) 
17.75120449066162

>  <fragmenstein_outcome>  (328) 
too moved

>  <fragmenstein_mode>  (328) 
expansion

>  <fragmenstein_error>  (328) 


$$$$
C53493-P101
     RDKit          3D

 46 47  0  0  0  0  0  0  0  0999 V2000
   -2.0742  -14.0272   25.5226 C   0  0  0  0  0  0  0  0  0  0  0  0
   -2.0590  -15.2715   24.4058 C   0  0  0  0  0  0  0  0  0  0  0  0
   -0.9179  -14.8162   22.7301 C   0  0  0  0  0  0  0  0  0  0  0  0
    0.5008  -15.6318   21.5354 C   0  0  0  0  0  0  0  0  0  0  0  0
    2.1391  -14.9294   20.5697 N   0  0  0  0  0  0  0  0  0  0  0  0
    3.3441  -13.5753   20.9991 C   0  0  0  0  0  0  0  0  0  0  0  0
    3.4329  -12.8675   22.0303 O   0  0  0  0  0  0  0  0  0  0  0  0
    4.6451  -13.2018   19.5937 C   0  0  0  0  0  0  0  0  0  0  0  0
    5.9647  -12.1975   19.6081 C   0  0  0  0  0  0  0  0  0  0  0  0
    6.3360  -11.5892   18.2016 C   0  0  0  0  0  0  0  0  0  0  0  0
    7.5896  -10.9109   18.3869 N   0  0  0  0  0  0  0  0  0  0  0  0
    8.3074  -11.4927   19.3975 C   0  0  0  0  0  0  0  0  0  0  0  0
    9.4656  -11.2271   19.6733 O   0  0  0  0  0  0  0  0  0  0  0  0
    7.4080  -12.5372   20.0560 C   0  0  0  0  0  0  0  0  0  0  0  0
   -2.9346  -16.1978   25.7916 N   0  0  0  0  0  0  0  0  0  0  0  0
   -2.4067  -17.3961   26.7822 C   0  0  0  0  0  0  0  0  0  0  0  0
   -1.3534  -18.0151   26.7793 O   0  0  0  0  0  0  0  0  0  0  0  0
   -3.3488  -17.6984   27.9532 C   0  0  0  0  0  0  0  0  0  0  0  0
   -4.3279  -16.8737   28.4882 C   0  0  0  0  0  0  0  0  0  0  0  0
   -4.8670  -17.5725   29.5323 N   0  0  0  0  0  0  0  0  0  0  0  0
   -5.7977  -17.0343   30.4885 C   0  0  0  0  0  0  0  0  0  0  0  0
   -4.2526  -18.7851   29.5982 C   0  0  0  0  0  0  0  0  0  0  0  0
   -3.3213  -18.8964   28.6805 N   0  0  0  0  0  0  0  0  0  0  0  0
   -2.2700  -14.4296   26.5244 H   0  0  0  0  0  0  0  0  0  0  0  0
   -2.7580  -13.1851   25.3786 H   0  0  0  0  0  0  0  0  0  0  0  0
   -1.1684  -13.5108   25.5744 H   0  0  0  0  0  0  0  0  0  0  0  0
   -1.2007  -15.7547   24.4977 H   0  0  0  0  0  0  0  0  0  0  0  0
   -0.3147  -13.9978   23.1127 H   0  0  0  0  0  0  0  0  0  0  0  0
   -1.6203  -14.6930   21.8942 H   0  0  0  0  0  0  0  0  0  0  0  0
    0.0901  -16.0751   20.5349 H   0  0  0  0  0  0  0  0  0  0  0  0
    0.2426  -16.7234   21.5241 H   0  0  0  0  0  0  0  0  0  0  0  0
    2.2950  -15.2357   19.6309 H   0  0  0  0  0  0  0  0  0  0  0  0
    5.1068  -14.0729   19.1210 H   0  0  0  0  0  0  0  0  0  0  0  0
    4.0495  -12.9020   18.7281 H   0  0  0  0  0  0  0  0  0  0  0  0
    5.7092  -11.4627   20.3491 H   0  0  0  0  0  0  0  0  0  0  0  0
    6.4930  -12.3733   17.4609 H   0  0  0  0  0  0  0  0  0  0  0  0
    5.6645  -10.8677   17.7438 H   0  0  0  0  0  0  0  0  0  0  0  0
    8.1062  -10.4324   17.6518 H   0  0  0  0  0  0  0  0  0  0  0  0
    7.7532  -13.5161   19.7309 H   0  0  0  0  0  0  0  0  0  0  0  0
    7.5239  -12.3890   21.1235 H   0  0  0  0  0  0  0  0  0  0  0  0
   -3.8124  -15.8546   26.1219 H   0  0  0  0  0  0  0  0  0  0  0  0
   -4.6372  -15.8688   28.2493 H   0  0  0  0  0  0  0  0  0  0  0  0
   -6.7800  -16.9814   30.0171 H   0  0  0  0  0  0  0  0  0  0  0  0
   -5.8224  -17.6686   31.3771 H   0  0  0  0  0  0  0  0  0  0  0  0
   -5.4666  -16.0316   30.7734 H   0  0  0  0  0  0  0  0  0  0  0  0
   -4.4865  -19.5280   30.3486 H   0  0  0  0  0  0  0  0  0  0  0  0
  1  2  1  0
  2  3  1  0
  3  4  1  0
  4  5  1  0
  5  6  1  0
  6  7  2  0
  6  8  1  0
  8  9  1  0
  9 10  1  0
 10 11  1  0
 11 12  1  0
 12 13  2  0
 12 14  1  0
  2 15  1  0
 15 16  1  0
 16 17  2  0
 16 18  1  0
 18 19  2  0
 19 20  1  0
 20 21  1  0
 20 22  1  0
 22 23  2  0
 14  9  1  0
 23 18  1  0
  1 24  1  0
  1 25  1  0
  1 26  1  0
  2 27  1  0
  3 28  1  0
  3 29  1  0
  4 30  1  0
  4 31  1  0
  5 32  1  0
  8 33  1  0
  8 34  1  0
  9 35  1  0
 10 36  1  0
 10 37  1  0
 11 38  1  0
 14 39  1  0
 14 40  1  0
 15 41  1  0
 19 42  1  0
 21 43  1  0
 21 44  1  0
 21 45  1  0
 22 46  1  0
M  END
>  <Energy>  (329) 
582.18878321017189

>  <compound_id>  (329) 
53493

>  <target_id>  (329) 
1

>  <reference_id>  (329) 
101

>  <inspiration_ids>  (329) 
[101, 98]

>  <energy_score>  (329) 
573.4455064249282

>  <distance_score>  (329) 
11.74685705927304

>  <path>  (329) 
/opt/xchem-fragalysis-2/maxwin/BulkDock/SCRATCH/511024/C53493-P101/C53493-P101.minimised.mol

>  <scratch_subdir>  (329) 
/opt/xchem-fragalysis-2/maxwin/BulkDock/SCRATCH/511024/C53493-P101

>  <fragmenstein_runtime>  (329) 
42.858054399490356

>  <fragmenstein_outcome>  (329) 
too moved

>  <fragmenstein_mode>  (329) 
expansion

>  <fragmenstein_error>  (329) 


$$$$
C53493-P98
     RDKit          3D

 46 47  0  0  0  0  0  0  0  0999 V2000
    3.4904  -19.2392   12.2595 C   0  0  0  0  0  0  0  0  0  0  0  0
    2.8119  -18.2184   13.1747 C   0  0  0  0  0  0  0  0  0  0  0  0
    3.8580  -17.4064   14.0169 C   0  0  0  0  0  0  0  0  0  0  0  0
    4.8954  -16.5938   13.1627 C   0  0  0  0  0  0  0  0  0  0  0  0
    5.8212  -15.6992   13.8943 N   0  0  0  0  0  0  0  0  0  0  0  0
    6.5977  -14.5372   13.4374 C   0  0  0  0  0  0  0  0  0  0  0  0
    6.6138  -13.9774   12.3787 O   0  0  0  0  0  0  0  0  0  0  0  0
    7.4308  -13.9476   14.6160 C   0  0  0  0  0  0  0  0  0  0  0  0
    8.1871  -12.5925   14.4064 C   0  0  0  0  0  0  0  0  0  0  0  0
    9.5287  -12.7146   13.6819 C   0  0  0  0  0  0  0  0  0  0  0  0
   10.4074  -11.7685   14.3122 N   0  0  0  0  0  0  0  0  0  0  0  0
    9.9918  -11.4434   15.5846 C   0  0  0  0  0  0  0  0  0  0  0  0
   10.6979  -10.9382   16.4411 O   0  0  0  0  0  0  0  0  0  0  0  0
    8.5725  -11.9268   15.7552 C   0  0  0  0  0  0  0  0  0  0  0  0
    1.7321  -18.9193   13.9171 N   0  0  0  0  0  0  0  0  0  0  0  0
    0.2959  -18.8960   13.7458 C   0  0  0  0  0  0  0  0  0  0  0  0
   -0.3911  -18.2446   13.0143 O   0  0  0  0  0  0  0  0  0  0  0  0
   -0.4315  -19.9382   14.5723 C   0  0  0  0  0  0  0  0  0  0  0  0
   -1.8139  -19.9947   14.7589 C   0  0  0  0  0  0  0  0  0  0  0  0
   -2.0717  -21.1522   15.4339 N   0  0  0  0  0  0  0  0  0  0  0  0
   -3.3726  -21.6495   15.8016 C   0  0  0  0  0  0  0  0  0  0  0  0
   -0.8757  -21.7743   15.6349 C   0  0  0  0  0  0  0  0  0  0  0  0
    0.1370  -21.0378   15.2102 N   0  0  0  0  0  0  0  0  0  0  0  0
    2.7467  -19.7935   11.6756 H   0  0  0  0  0  0  0  0  0  0  0  0
    4.0605  -19.9696   12.8440 H   0  0  0  0  0  0  0  0  0  0  0  0
    4.1692  -18.7588   11.5494 H   0  0  0  0  0  0  0  0  0  0  0  0
    2.2905  -17.4978   12.5319 H   0  0  0  0  0  0  0  0  0  0  0  0
    4.4040  -18.0983   14.6638 H   0  0  0  0  0  0  0  0  0  0  0  0
    3.3162  -16.7182   14.6744 H   0  0  0  0  0  0  0  0  0  0  0  0
    4.3709  -15.9717   12.4295 H   0  0  0  0  0  0  0  0  0  0  0  0
    5.5386  -17.2827   12.6063 H   0  0  0  0  0  0  0  0  0  0  0  0
    6.1229  -15.9540   14.8272 H   0  0  0  0  0  0  0  0  0  0  0  0
    6.6991  -13.7621   15.4053 H   0  0  0  0  0  0  0  0  0  0  0  0
    8.1280  -14.7189   14.9621 H   0  0  0  0  0  0  0  0  0  0  0  0
    7.5403  -11.9003   13.8522 H   0  0  0  0  0  0  0  0  0  0  0  0
    9.4526  -12.4864   12.6154 H   0  0  0  0  0  0  0  0  0  0  0  0
    9.9715  -13.7088   13.8022 H   0  0  0  0  0  0  0  0  0  0  0  0
   11.4055  -11.7066   14.1377 H   0  0  0  0  0  0  0  0  0  0  0  0
    8.5541  -12.6460   16.5800 H   0  0  0  0  0  0  0  0  0  0  0  0
    7.9110  -11.0876   15.9836 H   0  0  0  0  0  0  0  0  0  0  0  0
    1.9758  -19.6598   14.5723 H   0  0  0  0  0  0  0  0  0  0  0  0
   -2.5961  -19.3345   14.4065 H   0  0  0  0  0  0  0  0  0  0  0  0
   -3.9351  -20.8395   16.2731 H   0  0  0  0  0  0  0  0  0  0  0  0
   -3.2596  -22.4779   16.5056 H   0  0  0  0  0  0  0  0  0  0  0  0
   -3.8788  -21.9908   14.8953 H   0  0  0  0  0  0  0  0  0  0  0  0
   -0.7882  -22.7439   16.1092 H   0  0  0  0  0  0  0  0  0  0  0  0
  1  2  1  0
  2  3  1  0
  3  4  1  0
  4  5  1  0
  5  6  1  0
  6  7  2  0
  6  8  1  0
  8  9  1  0
  9 10  1  0
 10 11  1  0
 11 12  1  0
 12 13  2  0
 12 14  1  0
  2 15  1  0
 15 16  1  0
 16 17  2  0
 16 18  1  0
 18 19  2  0
 19 20  1  0
 20 21  1  0
 20 22  1  0
 22 23  2  0
 14  9  1  0
 23 18  1  0
  1 24  1  0
  1 25  1  0
  1 26  1  0
  2 27  1  0
  3 28  1  0
  3 29  1  0
  4 30  1  0
  4 31  1  0
  5 32  1  0
  8 33  1  0
  8 34  1  0
  9 35  1  0
 10 36  1  0
 10 37  1  0
 11 38  1  0
 14 39  1  0
 14 40  1  0
 15 41  1  0
 19 42  1  0
 21 43  1  0
 21 44  1  0
 21 45  1  0
 22 46  1  0
M  END
>  <Energy>  (330) 
-6.8065961485448501

>  <compound_id>  (330) 
53493

>  <target_id>  (330) 
1

>  <reference_id>  (330) 
98

>  <inspiration_ids>  (330) 
[101, 98]

>  <energy_score>  (330) 
-15.54987293378025

>  <distance_score>  (330) 
14.194246224358023

>  <path>  (330) 
/opt/xchem-fragalysis-2/maxwin/BulkDock/SCRATCH/511024/C53493-P98/C53493-P98.minimised.mol

>  <scratch_subdir>  (330) 
/opt/xchem-fragalysis-2/maxwin/BulkDock/SCRATCH/511024/C53493-P98

>  <fragmenstein_runtime>  (330) 
58.70934295654297

>  <fragmenstein_outcome>  (330) 
too moved

>  <fragmenstein_mode>  (330) 
expansion

>  <fragmenstein_error>  (330) 


$$$$
C53494-P101
     RDKit          3D

 46 47  0  0  0  0  0  0  0  0999 V2000
   -9.5383  -20.7860   27.8562 C   0  0  0  0  0  0  0  0  0  0  0  0
   -7.5029  -20.5906   27.5261 C   0  0  0  0  0  0  0  0  0  0  0  0
   -7.0971  -22.1668   27.6906 N   0  0  0  0  0  0  0  0  0  0  0  0
   -5.8362  -22.4349   27.2520 C   0  0  0  0  0  0  0  0  0  0  0  0
   -5.2010  -21.4121   26.6258 N   0  0  0  0  0  0  0  0  0  0  0  0
   -6.0081  -19.8237   26.5135 C   0  0  0  0  0  0  0  0  0  0  0  0
   -5.3830  -19.3738   24.5987 C   0  0  0  0  0  0  0  0  0  0  0  0
   -4.3534  -19.9711   24.3714 O   0  0  0  0  0  0  0  0  0  0  0  0
   -6.1180  -18.2308   23.1886 N   0  0  0  0  0  0  0  0  0  0  0  0
   -5.4073  -17.6827   21.3319 C   0  0  0  0  0  0  0  0  0  0  0  0
   -6.0099  -18.8071   20.3370 C   0  0  0  0  0  0  0  0  0  0  0  0
   -3.5077  -17.0753   20.3400 C   0  0  0  0  0  0  0  0  0  0  0  0
   -1.5458  -16.3796   19.8865 C   0  0  0  0  0  0  0  0  0  0  0  0
    0.4887  -16.2695   19.7268 N   0  0  0  0  0  0  0  0  0  0  0  0
    1.6689  -15.1971   18.5239 C   0  0  0  0  0  0  0  0  0  0  0  0
    1.2048  -14.3393   17.7322 O   0  0  0  0  0  0  0  0  0  0  0  0
    3.2389  -15.1687   18.4437 C   0  0  0  0  0  0  0  0  0  0  0  0
    4.1130  -14.6050   17.1631 C   0  0  0  0  0  0  0  0  0  0  0  0
    5.6128  -15.0704   17.2979 C   0  0  0  0  0  0  0  0  0  0  0  0
    6.5115  -13.9112   16.9098 C   0  0  0  0  0  0  0  0  0  0  0  0
    5.7134  -12.7775   17.1823 N   0  0  0  0  0  0  0  0  0  0  0  0
    4.3801  -13.0857   17.0102 C   0  0  0  0  0  0  0  0  0  0  0  0
    3.5889  -12.2422   16.6254 O   0  0  0  0  0  0  0  0  0  0  0  0
   -9.6501  -21.8615   28.3234 H   0  0  0  0  0  0  0  0  0  0  0  0
  -10.0225  -20.6179   28.9211 H   0  0  0  0  0  0  0  0  0  0  0  0
  -10.3618  -20.9796   27.1190 H   0  0  0  0  0  0  0  0  0  0  0  0
   -7.8284  -22.8200   27.8872 H   0  0  0  0  0  0  0  0  0  0  0  0
   -5.4176  -23.3963   27.3134 H   0  0  0  0  0  0  0  0  0  0  0  0
   -7.0135  -17.8710   23.4950 H   0  0  0  0  0  0  0  0  0  0  0  0
   -6.1426  -16.9800   20.9443 H   0  0  0  0  0  0  0  0  0  0  0  0
   -6.9097  -19.2519   20.7723 H   0  0  0  0  0  0  0  0  0  0  0  0
   -6.2827  -18.3376   19.3838 H   0  0  0  0  0  0  0  0  0  0  0  0
   -5.2947  -19.5941   20.0824 H   0  0  0  0  0  0  0  0  0  0  0  0
   -3.8280  -17.2010   19.2918 H   0  0  0  0  0  0  0  0  0  0  0  0
   -3.5568  -16.1516   20.8530 H   0  0  0  0  0  0  0  0  0  0  0  0
   -1.2403  -17.0562   20.6952 H   0  0  0  0  0  0  0  0  0  0  0  0
   -1.6265  -17.1095   19.0773 H   0  0  0  0  0  0  0  0  0  0  0  0
    1.0434  -16.8196   20.3241 H   0  0  0  0  0  0  0  0  0  0  0  0
    3.8009  -16.0028   18.7352 H   0  0  0  0  0  0  0  0  0  0  0  0
    3.3932  -14.2540   18.9862 H   0  0  0  0  0  0  0  0  0  0  0  0
    3.6843  -14.9735   16.2250 H   0  0  0  0  0  0  0  0  0  0  0  0
    5.8421  -15.3538   18.3310 H   0  0  0  0  0  0  0  0  0  0  0  0
    5.8180  -15.9445   16.6723 H   0  0  0  0  0  0  0  0  0  0  0  0
    7.4400  -13.8728   17.4845 H   0  0  0  0  0  0  0  0  0  0  0  0
    6.7405  -13.9276   15.8393 H   0  0  0  0  0  0  0  0  0  0  0  0
    5.9688  -11.8290   16.9335 H   0  0  0  0  0  0  0  0  0  0  0  0
  1  2  1  0
  2  3  1  0
  3  4  1  0
  4  5  2  0
  5  6  1  0
  6  7  1  0
  7  8  2  0
  7  9  1  0
  9 10  1  0
 10 11  1  0
 10 12  1  0
 12 13  1  0
 13 14  1  0
 14 15  1  0
 15 16  2  0
 15 17  1  0
 17 18  1  0
 18 19  1  0
 19 20  1  0
 20 21  1  0
 21 22  1  0
 22 23  2  0
  6  2  2  0
 22 18  1  0
  1 24  1  0
  1 25  1  0
  1 26  1  0
  3 27  1  0
  4 28  1  0
  9 29  1  0
 10 30  1  0
 11 31  1  0
 11 32  1  0
 11 33  1  0
 12 34  1  0
 12 35  1  0
 13 36  1  0
 13 37  1  0
 14 38  1  0
 17 39  1  0
 17 40  1  0
 18 41  1  0
 19 42  1  0
 19 43  1  0
 20 44  1  0
 20 45  1  0
 21 46  1  0
M  END
>  <Energy>  (331) 
1298.2166077757031

>  <compound_id>  (331) 
53494

>  <target_id>  (331) 
1

>  <reference_id>  (331) 
101

>  <inspiration_ids>  (331) 
[101, 98]

>  <energy_score>  (331) 
1292.9587800510888

>  <distance_score>  (331) 
12.435505782837

>  <path>  (331) 
/opt/xchem-fragalysis-2/maxwin/BulkDock/SCRATCH/511024/C53494-P101/C53494-P101.minimised.mol

>  <scratch_subdir>  (331) 
/opt/xchem-fragalysis-2/maxwin/BulkDock/SCRATCH/511024/C53494-P101

>  <fragmenstein_runtime>  (331) 
32.94412398338318

>  <fragmenstein_outcome>  (331) 
too moved

>  <fragmenstein_mode>  (331) 
expansion

>  <fragmenstein_error>  (331) 


$$$$
C53494-P98
     RDKit          3D

 46 47  0  0  0  0  0  0  0  0999 V2000
   -7.6028  -21.8877   27.5416 C   0  0  0  0  0  0  0  0  0  0  0  0
   -6.0545  -21.7419   27.4393 C   0  0  0  0  0  0  0  0  0  0  0  0
   -5.7602  -23.0371   27.4074 N   0  0  0  0  0  0  0  0  0  0  0  0
   -6.1214  -23.1989   26.1505 C   0  0  0  0  0  0  0  0  0  0  0  0
   -5.7680  -22.1017   25.6669 N   0  0  0  0  0  0  0  0  0  0  0  0
   -5.1673  -21.0592   26.2715 C   0  0  0  0  0  0  0  0  0  0  0  0
   -4.4867  -20.6913   24.7091 C   0  0  0  0  0  0  0  0  0  0  0  0
   -5.3100  -20.8531   23.8701 O   0  0  0  0  0  0  0  0  0  0  0  0
   -2.7480  -20.2782   24.3010 N   0  0  0  0  0  0  0  0  0  0  0  0
   -1.9894  -20.1667   22.9255 C   0  0  0  0  0  0  0  0  0  0  0  0
   -0.9604  -21.3402   23.3975 C   0  0  0  0  0  0  0  0  0  0  0  0
   -1.2440  -18.5574   21.7302 C   0  0  0  0  0  0  0  0  0  0  0  0
    0.1667  -17.4033   20.8018 C   0  0  0  0  0  0  0  0  0  0  0  0
    0.3785  -16.0032   19.6198 N   0  0  0  0  0  0  0  0  0  0  0  0
    1.9388  -15.2893   18.6819 C   0  0  0  0  0  0  0  0  0  0  0  0
    3.1007  -15.5901   18.7682 O   0  0  0  0  0  0  0  0  0  0  0  0
    1.7607  -14.2329   17.5260 C   0  0  0  0  0  0  0  0  0  0  0  0
    3.3643  -13.6483   16.9880 C   0  0  0  0  0  0  0  0  0  0  0  0
    4.5968  -13.5699   17.9422 C   0  0  0  0  0  0  0  0  0  0  0  0
    5.6661  -12.7396   17.2455 C   0  0  0  0  0  0  0  0  0  0  0  0
    4.9379  -11.9366   16.3317 N   0  0  0  0  0  0  0  0  0  0  0  0
    3.6261  -12.3313   16.1946 C   0  0  0  0  0  0  0  0  0  0  0  0
    2.8549  -11.7296   15.4691 O   0  0  0  0  0  0  0  0  0  0  0  0
   -8.1436  -22.4986   28.2177 H   0  0  0  0  0  0  0  0  0  0  0  0
   -7.9724  -20.9094   27.4503 H   0  0  0  0  0  0  0  0  0  0  0  0
   -7.9462  -22.4992   26.7290 H   0  0  0  0  0  0  0  0  0  0  0  0
   -5.9784  -23.6169   28.1892 H   0  0  0  0  0  0  0  0  0  0  0  0
   -6.4266  -23.8519   25.3333 H   0  0  0  0  0  0  0  0  0  0  0  0
   -2.2334  -20.0928   25.1639 H   0  0  0  0  0  0  0  0  0  0  0  0
   -2.7080  -20.7678   22.3762 H   0  0  0  0  0  0  0  0  0  0  0  0
   -0.0945  -20.7938   23.6413 H   0  0  0  0  0  0  0  0  0  0  0  0
   -1.3497  -21.9067   24.1683 H   0  0  0  0  0  0  0  0  0  0  0  0
   -0.5026  -22.1288   22.8242 H   0  0  0  0  0  0  0  0  0  0  0  0
   -0.4760  -18.3882   22.4155 H   0  0  0  0  0  0  0  0  0  0  0  0
   -2.0085  -18.0152   21.1601 H   0  0  0  0  0  0  0  0  0  0  0  0
   -0.1722  -16.5909   21.4363 H   0  0  0  0  0  0  0  0  0  0  0  0
   -0.5431  -17.5764   19.9910 H   0  0  0  0  0  0  0  0  0  0  0  0
   -0.4899  -15.5169   19.3466 H   0  0  0  0  0  0  0  0  0  0  0  0
    1.5472  -14.7072   16.5536 H   0  0  0  0  0  0  0  0  0  0  0  0
    0.8440  -13.6849   17.6517 H   0  0  0  0  0  0  0  0  0  0  0  0
    3.6295  -14.4247   16.2497 H   0  0  0  0  0  0  0  0  0  0  0  0
    4.3418  -13.0981   18.8883 H   0  0  0  0  0  0  0  0  0  0  0  0
    5.0327  -14.5513   18.1461 H   0  0  0  0  0  0  0  0  0  0  0  0
    6.3590  -13.3641   16.6733 H   0  0  0  0  0  0  0  0  0  0  0  0
    6.2310  -12.1104   17.9381 H   0  0  0  0  0  0  0  0  0  0  0  0
    5.2693  -11.0831   15.9021 H   0  0  0  0  0  0  0  0  0  0  0  0
  1  2  1  0
  2  3  1  0
  3  4  1  0
  4  5  2  0
  5  6  1  0
  6  7  1  0
  7  8  2  0
  7  9  1  0
  9 10  1  0
 10 11  1  0
 10 12  1  0
 12 13  1  0
 13 14  1  0
 14 15  1  0
 15 16  2  0
 15 17  1  0
 17 18  1  0
 18 19  1  0
 19 20  1  0
 20 21  1  0
 21 22  1  0
 22 23  2  0
  6  2  2  0
 22 18  1  0
  1 24  1  0
  1 25  1  0
  1 26  1  0
  3 27  1  0
  4 28  1  0
  9 29  1  0
 10 30  1  0
 11 31  1  0
 11 32  1  0
 11 33  1  0
 12 34  1  0
 12 35  1  0
 13 36  1  0
 13 37  1  0
 14 38  1  0
 17 39  1  0
 17 40  1  0
 18 41  1  0
 19 42  1  0
 19 43  1  0
 20 44  1  0
 20 45  1  0
 21 46  1  0
M  END
>  <Energy>  (332) 
865.35224375173425

>  <compound_id>  (332) 
53494

>  <target_id>  (332) 
1

>  <reference_id>  (332) 
98

>  <inspiration_ids>  (332) 
[101, 98]

>  <energy_score>  (332) 
860.0944160271051

>  <distance_score>  (332) 
12.345761113385615

>  <path>  (332) 
/opt/xchem-fragalysis-2/maxwin/BulkDock/SCRATCH/511024/C53494-P98/C53494-P98.minimised.mol

>  <scratch_subdir>  (332) 
/opt/xchem-fragalysis-2/maxwin/BulkDock/SCRATCH/511024/C53494-P98

>  <fragmenstein_runtime>  (332) 
31.690739393234253

>  <fragmenstein_outcome>  (332) 
too moved

>  <fragmenstein_mode>  (332) 
expansion

>  <fragmenstein_error>  (332) 


$$$$
C53495-P101
     RDKit          3D

 46 47  0  0  0  0  0  0  0  0999 V2000
   -6.0338  -23.1304   26.5838 C   0  0  0  0  0  0  0  0  0  0  0  0
   -6.0122  -23.5363   24.9552 C   0  0  0  0  0  0  0  0  0  0  0  0
   -7.0927  -23.8923   24.1223 N   0  0  0  0  0  0  0  0  0  0  0  0
   -7.1407  -23.2331   22.9300 C   0  0  0  0  0  0  0  0  0  0  0  0
   -6.2384  -22.3247   22.9073 N   0  0  0  0  0  0  0  0  0  0  0  0
   -5.4708  -22.4611   24.1654 C   0  0  0  0  0  0  0  0  0  0  0  0
   -4.1998  -20.9530   24.2942 C   0  0  0  0  0  0  0  0  0  0  0  0
   -4.6951  -20.0623   24.8866 O   0  0  0  0  0  0  0  0  0  0  0  0
   -2.5321  -20.8080   23.4880 N   0  0  0  0  0  0  0  0  0  0  0  0
   -1.4209  -19.4105   23.2944 C   0  0  0  0  0  0  0  0  0  0  0  0
   -1.9210  -18.6504   25.2226 C   0  0  0  0  0  0  0  0  0  0  0  0
   -0.5815  -18.1926   21.7188 C   0  0  0  0  0  0  0  0  0  0  0  0
    0.3414  -16.6186   20.7240 C   0  0  0  0  0  0  0  0  0  0  0  0
    1.8772  -15.3530   20.3694 N   0  0  0  0  0  0  0  0  0  0  0  0
    2.7655  -14.9864   18.8593 C   0  0  0  0  0  0  0  0  0  0  0  0
    2.6342  -15.5207   17.7794 O   0  0  0  0  0  0  0  0  0  0  0  0
    4.2285  -13.7332   18.7951 C   0  0  0  0  0  0  0  0  0  0  0  0
    5.4176  -13.0799   17.8190 C   0  0  0  0  0  0  0  0  0  0  0  0
    5.3318  -11.9318   16.7913 C   0  0  0  0  0  0  0  0  0  0  0  0
    6.5910  -11.2236   16.8486 N   0  0  0  0  0  0  0  0  0  0  0  0
    7.3392  -11.5233   17.9582 C   0  0  0  0  0  0  0  0  0  0  0  0
    8.3991  -11.0032   18.2718 O   0  0  0  0  0  0  0  0  0  0  0  0
    6.5978  -12.5843   18.7355 C   0  0  0  0  0  0  0  0  0  0  0  0
   -5.2852  -23.5645   27.2081 H   0  0  0  0  0  0  0  0  0  0  0  0
   -5.5248  -22.1831   26.7260 H   0  0  0  0  0  0  0  0  0  0  0  0
   -7.0216  -23.0135   27.0250 H   0  0  0  0  0  0  0  0  0  0  0  0
   -7.9756  -24.1932   24.4619 H   0  0  0  0  0  0  0  0  0  0  0  0
   -7.9204  -23.3438   22.1891 H   0  0  0  0  0  0  0  0  0  0  0  0
   -2.2705  -21.6678   23.1259 H   0  0  0  0  0  0  0  0  0  0  0  0
   -1.8688  -19.8435   22.4793 H   0  0  0  0  0  0  0  0  0  0  0  0
   -2.4377  -19.3707   25.8202 H   0  0  0  0  0  0  0  0  0  0  0  0
   -1.0306  -18.4383   25.8763 H   0  0  0  0  0  0  0  0  0  0  0  0
   -2.3998  -17.6716   25.2686 H   0  0  0  0  0  0  0  0  0  0  0  0
   -1.4106  -18.1997   21.0001 H   0  0  0  0  0  0  0  0  0  0  0  0
    0.3436  -18.6674   21.4772 H   0  0  0  0  0  0  0  0  0  0  0  0
   -0.3967  -16.4338   19.9681 H   0  0  0  0  0  0  0  0  0  0  0  0
    0.0030  -16.0273   21.5570 H   0  0  0  0  0  0  0  0  0  0  0  0
    2.1417  -14.6850   21.0870 H   0  0  0  0  0  0  0  0  0  0  0  0
    4.9562  -14.5740   18.8068 H   0  0  0  0  0  0  0  0  0  0  0  0
    4.2637  -13.1662   19.7327 H   0  0  0  0  0  0  0  0  0  0  0  0
    5.8127  -13.9254   17.2278 H   0  0  0  0  0  0  0  0  0  0  0  0
    5.2541  -12.3278   15.7730 H   0  0  0  0  0  0  0  0  0  0  0  0
    4.5187  -11.2224   16.9231 H   0  0  0  0  0  0  0  0  0  0  0  0
    6.9202  -10.5356   16.1752 H   0  0  0  0  0  0  0  0  0  0  0  0
    6.2356  -12.1328   19.6635 H   0  0  0  0  0  0  0  0  0  0  0  0
    7.2723  -13.4133   18.9693 H   0  0  0  0  0  0  0  0  0  0  0  0
  1  2  1  0
  2  3  1  0
  3  4  1  0
  4  5  2  0
  5  6  1  0
  6  7  1  0
  7  8  2  0
  7  9  1  0
  9 10  1  0
 10 11  1  0
 10 12  1  0
 12 13  1  0
 13 14  1  0
 14 15  1  0
 15 16  2  0
 15 17  1  0
 17 18  1  0
 18 19  1  0
 19 20  1  0
 20 21  1  0
 21 22  2  0
 21 23  1  0
  6  2  2  0
 23 18  1  0
  1 24  1  0
  1 25  1  0
  1 26  1  0
  3 27  1  0
  4 28  1  0
  9 29  1  0
 10 30  1  0
 11 31  1  0
 11 32  1  0
 11 33  1  0
 12 34  1  0
 12 35  1  0
 13 36  1  0
 13 37  1  0
 14 38  1  0
 17 39  1  0
 17 40  1  0
 18 41  1  0
 19 42  1  0
 19 43  1  0
 20 44  1  0
 23 45  1  0
 23 46  1  0
M  END
>  <Energy>  (333) 
910.33561583373387

>  <compound_id>  (333) 
53495

>  <target_id>  (333) 
1

>  <reference_id>  (333) 
101

>  <inspiration_ids>  (333) 
[101, 98]

>  <energy_score>  (333) 
898.4463485397421

>  <distance_score>  (333) 
11.008380409391739

>  <path>  (333) 
/opt/xchem-fragalysis-2/maxwin/BulkDock/SCRATCH/511024/C53495-P101/C53495-P101.minimised.mol

>  <scratch_subdir>  (333) 
/opt/xchem-fragalysis-2/maxwin/BulkDock/SCRATCH/511024/C53495-P101

>  <fragmenstein_runtime>  (333) 
43.34373331069946

>  <fragmenstein_outcome>  (333) 
too moved

>  <fragmenstein_mode>  (333) 
expansion

>  <fragmenstein_error>  (333) 


$$$$
C53495-P98
     RDKit          3D

 46 47  0  0  0  0  0  0  0  0999 V2000
   -6.0106  -21.2655   27.4455 C   0  0  0  0  0  0  0  0  0  0  0  0
   -5.1015  -20.0278   26.2456 C   0  0  0  0  0  0  0  0  0  0  0  0
   -5.0374  -21.1756   25.6669 N   0  0  0  0  0  0  0  0  0  0  0  0
   -4.8326  -20.8940   24.5050 C   0  0  0  0  0  0  0  0  0  0  0  0
   -3.7939  -20.1512   24.3547 N   0  0  0  0  0  0  0  0  0  0  0  0
   -3.3559  -19.5008   25.7441 C   0  0  0  0  0  0  0  0  0  0  0  0
   -2.1806  -17.9532   25.6317 C   0  0  0  0  0  0  0  0  0  0  0  0
   -1.1261  -18.2062   26.1763 O   0  0  0  0  0  0  0  0  0  0  0  0
   -2.4397  -16.3634   24.6440 N   0  0  0  0  0  0  0  0  0  0  0  0
   -1.1503  -14.9110   24.0795 C   0  0  0  0  0  0  0  0  0  0  0  0
   -1.9136  -14.1826   25.3216 C   0  0  0  0  0  0  0  0  0  0  0  0
    0.0971  -14.7393   22.2474 C   0  0  0  0  0  0  0  0  0  0  0  0
    1.8974  -14.6758   20.9249 C   0  0  0  0  0  0  0  0  0  0  0  0
    3.3129  -13.3432   20.9522 N   0  0  0  0  0  0  0  0  0  0  0  0
    4.4951  -12.9986   19.8317 C   0  0  0  0  0  0  0  0  0  0  0  0
    4.6749  -13.4544   18.7064 O   0  0  0  0  0  0  0  0  0  0  0  0
    5.6898  -11.9776   20.3267 C   0  0  0  0  0  0  0  0  0  0  0  0
    6.5828  -11.1873   19.2838 C   0  0  0  0  0  0  0  0  0  0  0  0
    7.7752  -11.9646   18.7224 C   0  0  0  0  0  0  0  0  0  0  0  0
    8.9390  -11.4332   19.3755 N   0  0  0  0  0  0  0  0  0  0  0  0
    8.7168  -10.2239   19.9801 C   0  0  0  0  0  0  0  0  0  0  0  0
    9.5833   -9.5160   20.4714 O   0  0  0  0  0  0  0  0  0  0  0  0
    7.2358   -9.9371   19.9326 C   0  0  0  0  0  0  0  0  0  0  0  0
   -7.0465  -20.9202   27.6236 H   0  0  0  0  0  0  0  0  0  0  0  0
   -5.4851  -21.6684   28.2426 H   0  0  0  0  0  0  0  0  0  0  0  0
   -6.2486  -22.3207   27.1200 H   0  0  0  0  0  0  0  0  0  0  0  0
   -5.6430  -21.9525   25.7631 H   0  0  0  0  0  0  0  0  0  0  0  0
   -5.5930  -21.1292   23.7142 H   0  0  0  0  0  0  0  0  0  0  0  0
   -3.4023  -16.3102   24.3509 H   0  0  0  0  0  0  0  0  0  0  0  0
   -0.2239  -14.5312   24.4961 H   0  0  0  0  0  0  0  0  0  0  0  0
   -2.0623  -14.7238   26.2764 H   0  0  0  0  0  0  0  0  0  0  0  0
   -2.1806  -13.1227   25.3698 H   0  0  0  0  0  0  0  0  0  0  0  0
   -2.7810  -14.6927   25.1643 H   0  0  0  0  0  0  0  0  0  0  0  0
   -0.3198  -13.7927   22.2170 H   0  0  0  0  0  0  0  0  0  0  0  0
   -0.2848  -15.6995   21.7910 H   0  0  0  0  0  0  0  0  0  0  0  0
    2.7825  -14.7274   21.6746 H   0  0  0  0  0  0  0  0  0  0  0  0
    2.0431  -15.0016   19.9205 H   0  0  0  0  0  0  0  0  0  0  0  0
    3.4072  -12.7310   21.7431 H   0  0  0  0  0  0  0  0  0  0  0  0
    6.4270  -12.5834   20.8443 H   0  0  0  0  0  0  0  0  0  0  0  0
    5.3200  -11.2905   21.0815 H   0  0  0  0  0  0  0  0  0  0  0  0
    5.9829  -10.8832   18.4240 H   0  0  0  0  0  0  0  0  0  0  0  0
    7.7187  -13.0429   18.8938 H   0  0  0  0  0  0  0  0  0  0  0  0
    7.8934  -11.7823   17.6488 H   0  0  0  0  0  0  0  0  0  0  0  0
    9.8844  -11.7347   19.1769 H   0  0  0  0  0  0  0  0  0  0  0  0
    6.8755   -9.7518   20.9483 H   0  0  0  0  0  0  0  0  0  0  0  0
    7.0526   -9.0472   19.3295 H   0  0  0  0  0  0  0  0  0  0  0  0
  1  2  1  0
  2  3  1  0
  3  4  1  0
  4  5  2  0
  5  6  1  0
  6  7  1  0
  7  8  2  0
  7  9  1  0
  9 10  1  0
 10 11  1  0
 10 12  1  0
 12 13  1  0
 13 14  1  0
 14 15  1  0
 15 16  2  0
 15 17  1  0
 17 18  1  0
 18 19  1  0
 19 20  1  0
 20 21  1  0
 21 22  2  0
 21 23  1  0
  6  2  2  0
 23 18  1  0
  1 24  1  0
  1 25  1  0
  1 26  1  0
  3 27  1  0
  4 28  1  0
  9 29  1  0
 10 30  1  0
 11 31  1  0
 11 32  1  0
 11 33  1  0
 12 34  1  0
 12 35  1  0
 13 36  1  0
 13 37  1  0
 14 38  1  0
 17 39  1  0
 17 40  1  0
 18 41  1  0
 19 42  1  0
 19 43  1  0
 20 44  1  0
 23 45  1  0
 23 46  1  0
M  END
>  <Energy>  (334) 
1139.9158535223844

>  <compound_id>  (334) 
53495

>  <target_id>  (334) 
1

>  <reference_id>  (334) 
98

>  <inspiration_ids>  (334) 
[101, 98]

>  <energy_score>  (334) 
1128.0265862284023

>  <distance_score>  (334) 
10.715623763262236

>  <path>  (334) 
/opt/xchem-fragalysis-2/maxwin/BulkDock/SCRATCH/511024/C53495-P98/C53495-P98.minimised.mol

>  <scratch_subdir>  (334) 
/opt/xchem-fragalysis-2/maxwin/BulkDock/SCRATCH/511024/C53495-P98

>  <fragmenstein_runtime>  (334) 
45.106192111968994

>  <fragmenstein_outcome>  (334) 
too moved

>  <fragmenstein_mode>  (334) 
expansion

>  <fragmenstein_error>  (334) 


$$$$
C53496-P101
     RDKit          3D

 49 50  0  0  0  0  0  0  0  0999 V2000
   -0.0591  -19.4706   23.5176 C   0  0  0  0  0  0  0  0  0  0  0  0
   -1.5900  -20.5064   23.4133 C   0  0  0  0  0  0  0  0  0  0  0  0
    0.1658  -21.2180   23.0059 O   0  0  0  0  0  0  0  0  0  0  0  0
    1.6851  -20.1143   22.2401 C   0  0  0  0  0  0  0  0  0  0  0  0
    3.3211  -19.1167   23.1589 C   0  0  0  0  0  0  0  0  0  0  0  0
    3.8822  -19.9202   23.8920 O   0  0  0  0  0  0  0  0  0  0  0  0
    4.3531  -17.3264   23.0654 N   0  0  0  0  0  0  0  0  0  0  0  0
    6.2139  -16.7397   23.8663 C   0  0  0  0  0  0  0  0  0  0  0  0
    8.2820  -16.2893   24.0168 C   0  0  0  0  0  0  0  0  0  0  0  0
    8.9997  -15.4037   25.3217 C   0  0  0  0  0  0  0  0  0  0  0  0
   10.4359  -15.1942   24.8091 C   0  0  0  0  0  0  0  0  0  0  0  0
   10.6801  -16.3530   23.8706 C   0  0  0  0  0  0  0  0  0  0  0  0
   11.6710  -16.4543   23.1586 O   0  0  0  0  0  0  0  0  0  0  0  0
    9.5268  -17.1631   23.7809 N   0  0  0  0  0  0  0  0  0  0  0  0
    3.9592  -16.4994   23.9856 C   0  0  0  0  0  0  0  0  0  0  0  0
    4.3402  -15.1120   24.8467 C   0  0  0  0  0  0  0  0  0  0  0  0
    3.3017  -17.8091   25.2583 C   0  0  0  0  0  0  0  0  0  0  0  0
   -3.4302  -20.4860   24.3306 C   0  0  0  0  0  0  0  0  0  0  0  0
   -4.7048  -20.8670   24.1365 N   0  0  0  0  0  0  0  0  0  0  0  0
   -4.9553  -21.9825   25.0327 C   0  0  0  0  0  0  0  0  0  0  0  0
   -4.9182  -21.5318   26.2904 C   0  0  0  0  0  0  0  0  0  0  0  0
   -4.3596  -20.2681   25.9672 N   0  0  0  0  0  0  0  0  0  0  0  0
   -3.7018  -19.7242   27.4479 C   0  0  0  0  0  0  0  0  0  0  0  0
    0.8345  -19.8869   23.8968 H   0  0  0  0  0  0  0  0  0  0  0  0
    0.4095  -18.9267   24.4716 H   0  0  0  0  0  0  0  0  0  0  0  0
   -0.1721  -18.7380   22.6520 H   0  0  0  0  0  0  0  0  0  0  0  0
   -2.0690  -20.4527   22.4967 H   0  0  0  0  0  0  0  0  0  0  0  0
    1.2452  -19.4371   21.4814 H   0  0  0  0  0  0  0  0  0  0  0  0
    2.0175  -20.5583   21.3037 H   0  0  0  0  0  0  0  0  0  0  0  0
    6.1196  -16.3806   24.8095 H   0  0  0  0  0  0  0  0  0  0  0  0
    6.6668  -17.6076   23.5037 H   0  0  0  0  0  0  0  0  0  0  0  0
    8.5763  -15.4090   23.4461 H   0  0  0  0  0  0  0  0  0  0  0  0
    8.5614  -14.4253   25.5389 H   0  0  0  0  0  0  0  0  0  0  0  0
    9.0826  -15.9220   26.2771 H   0  0  0  0  0  0  0  0  0  0  0  0
   10.5117  -14.2605   24.2428 H   0  0  0  0  0  0  0  0  0  0  0  0
   11.1633  -15.1977   25.6243 H   0  0  0  0  0  0  0  0  0  0  0  0
    9.4671  -17.8168   23.0061 H   0  0  0  0  0  0  0  0  0  0  0  0
    3.2777  -15.8875   23.4198 H   0  0  0  0  0  0  0  0  0  0  0  0
    3.7486  -14.2840   24.4469 H   0  0  0  0  0  0  0  0  0  0  0  0
    4.0395  -15.1483   25.9025 H   0  0  0  0  0  0  0  0  0  0  0  0
    5.3066  -14.8340   25.1117 H   0  0  0  0  0  0  0  0  0  0  0  0
    2.4016  -18.1867   24.8380 H   0  0  0  0  0  0  0  0  0  0  0  0
    3.0906  -17.4168   26.2671 H   0  0  0  0  0  0  0  0  0  0  0  0
    3.8003  -18.7433   25.4553 H   0  0  0  0  0  0  0  0  0  0  0  0
   -5.3056  -22.9774   24.7142 H   0  0  0  0  0  0  0  0  0  0  0  0
   -5.1281  -21.9249   27.2775 H   0  0  0  0  0  0  0  0  0  0  0  0
   -3.7888  -20.5242   28.1841 H   0  0  0  0  0  0  0  0  0  0  0  0
   -4.4281  -18.9894   27.8244 H   0  0  0  0  0  0  0  0  0  0  0  0
   -2.6849  -19.3998   27.2093 H   0  0  0  0  0  0  0  0  0  0  0  0
  1  2  1  0
  2  3  1  0
  3  4  1  0
  4  5  1  0
  5  6  2  0
  5  7  1  0
  7  8  1  0
  8  9  1  0
  9 10  1  0
 10 11  1  0
 11 12  1  0
 12 13  2  0
 12 14  1  0
  7 15  1  0
 15 16  1  0
 15 17  1  0
  2 18  1  0
 18 19  2  0
 19 20  1  0
 20 21  2  0
 21 22  1  0
 22 23  1  0
 14  9  1  0
 22 18  1  0
  1 24  1  0
  1 25  1  0
  1 26  1  0
  2 27  1  0
  4 28  1  0
  4 29  1  0
  8 30  1  0
  8 31  1  0
  9 32  1  0
 10 33  1  0
 10 34  1  0
 11 35  1  0
 11 36  1  0
 14 37  1  0
 15 38  1  0
 16 39  1  0
 16 40  1  0
 16 41  1  0
 17 42  1  0
 17 43  1  0
 17 44  1  0
 20 45  1  0
 21 46  1  0
 23 47  1  0
 23 48  1  0
 23 49  1  0
M  END
>  <Energy>  (335) 
1575.6044041735752

>  <compound_id>  (335) 
53496

>  <target_id>  (335) 
1

>  <reference_id>  (335) 
101

>  <inspiration_ids>  (335) 
[101, 98]

>  <energy_score>  (335) 
1479.9654603696022

>  <distance_score>  (335) 
13.47015786899181

>  <path>  (335) 
/opt/xchem-fragalysis-2/maxwin/BulkDock/SCRATCH/511024/C53496-P101/C53496-P101.minimised.mol

>  <scratch_subdir>  (335) 
/opt/xchem-fragalysis-2/maxwin/BulkDock/SCRATCH/511024/C53496-P101

>  <fragmenstein_runtime>  (335) 
32.592113971710205

>  <fragmenstein_outcome>  (335) 
too moved

>  <fragmenstein_mode>  (335) 
expansion

>  <fragmenstein_error>  (335) 


$$$$
C53496-P98
     RDKit          3D

 49 50  0  0  0  0  0  0  0  0999 V2000
   -3.3771  -21.2429   24.1816 C   0  0  0  0  0  0  0  0  0  0  0  0
   -4.9690  -22.5656   24.8862 C   0  0  0  0  0  0  0  0  0  0  0  0
   -3.7910  -20.7513   24.1822 O   0  0  0  0  0  0  0  0  0  0  0  0
   -1.9869  -19.6923   23.2969 C   0  0  0  0  0  0  0  0  0  0  0  0
   -0.5427  -18.1368   22.2157 C   0  0  0  0  0  0  0  0  0  0  0  0
    0.1862  -18.7221   21.5535 O   0  0  0  0  0  0  0  0  0  0  0  0
   -0.0653  -16.1169   21.9952 N   0  0  0  0  0  0  0  0  0  0  0  0
    1.1493  -15.2713   20.8446 C   0  0  0  0  0  0  0  0  0  0  0  0
    2.5975  -14.1441   20.2083 C   0  0  0  0  0  0  0  0  0  0  0  0
    3.9584  -13.7676   18.8602 C   0  0  0  0  0  0  0  0  0  0  0  0
    5.2905  -13.1919   19.2320 C   0  0  0  0  0  0  0  0  0  0  0  0
    4.9370  -12.5170   20.4526 C   0  0  0  0  0  0  0  0  0  0  0  0
    5.6860  -11.6124   20.8429 O   0  0  0  0  0  0  0  0  0  0  0  0
    3.6808  -13.0477   21.0126 N   0  0  0  0  0  0  0  0  0  0  0  0
    1.3586  -14.9346   23.2450 C   0  0  0  0  0  0  0  0  0  0  0  0
    1.8705  -13.2100   24.1345 C   0  0  0  0  0  0  0  0  0  0  0  0
    3.2505  -15.4264   23.4867 C   0  0  0  0  0  0  0  0  0  0  0  0
   -6.2209  -24.5915   25.2615 C   0  0  0  0  0  0  0  0  0  0  0  0
   -7.7604  -23.7358   25.5943 N   0  0  0  0  0  0  0  0  0  0  0  0
   -9.1648  -24.4910   26.7664 C   0  0  0  0  0  0  0  0  0  0  0  0
   -8.5826  -26.1602   27.3196 C   0  0  0  0  0  0  0  0  0  0  0  0
   -6.8793  -26.5732   26.3545 N   0  0  0  0  0  0  0  0  0  0  0  0
   -7.3869  -28.3106   25.7316 C   0  0  0  0  0  0  0  0  0  0  0  0
   -2.2601  -21.6537   23.6160 H   0  0  0  0  0  0  0  0  0  0  0  0
   -3.4288  -20.9834   22.7155 H   0  0  0  0  0  0  0  0  0  0  0  0
   -2.2629  -21.3777   24.6011 H   0  0  0  0  0  0  0  0  0  0  0  0
   -5.1947  -22.1091   25.8679 H   0  0  0  0  0  0  0  0  0  0  0  0
   -2.1020  -20.3481   22.5288 H   0  0  0  0  0  0  0  0  0  0  0  0
   -1.2205  -20.4069   23.5609 H   0  0  0  0  0  0  0  0  0  0  0  0
    0.6506  -15.9419   20.0799 H   0  0  0  0  0  0  0  0  0  0  0  0
    2.0485  -15.6667   20.6613 H   0  0  0  0  0  0  0  0  0  0  0  0
    2.3214  -14.4537   19.1445 H   0  0  0  0  0  0  0  0  0  0  0  0
    4.0961  -14.6374   18.2001 H   0  0  0  0  0  0  0  0  0  0  0  0
    3.7000  -12.7806   18.4620 H   0  0  0  0  0  0  0  0  0  0  0  0
    5.6601  -12.4865   18.4765 H   0  0  0  0  0  0  0  0  0  0  0  0
    6.0986  -13.8387   19.4458 H   0  0  0  0  0  0  0  0  0  0  0  0
    3.2694  -12.5740   21.7973 H   0  0  0  0  0  0  0  0  0  0  0  0
    2.2755  -14.4372   22.8033 H   0  0  0  0  0  0  0  0  0  0  0  0
    2.9577  -13.2654   24.1734 H   0  0  0  0  0  0  0  0  0  0  0  0
    1.5293  -13.1553   25.1877 H   0  0  0  0  0  0  0  0  0  0  0  0
    1.8600  -12.2187   23.6443 H   0  0  0  0  0  0  0  0  0  0  0  0
    3.5726  -16.4885   23.5174 H   0  0  0  0  0  0  0  0  0  0  0  0
    3.8166  -14.8774   24.2638 H   0  0  0  0  0  0  0  0  0  0  0  0
    3.6460  -15.0955   22.6281 H   0  0  0  0  0  0  0  0  0  0  0  0
  -10.1689  -24.0907   26.6507 H   0  0  0  0  0  0  0  0  0  0  0  0
   -9.2061  -26.9443   26.9719 H   0  0  0  0  0  0  0  0  0  0  0  0
   -8.4425  -28.3564   25.9766 H   0  0  0  0  0  0  0  0  0  0  0  0
   -7.0868  -28.6774   24.7432 H   0  0  0  0  0  0  0  0  0  0  0  0
   -6.5025  -28.5404   26.1906 H   0  0  0  0  0  0  0  0  0  0  0  0
  1  2  1  0
  2  3  1  0
  3  4  1  0
  4  5  1  0
  5  6  2  0
  5  7  1  0
  7  8  1  0
  8  9  1  0
  9 10  1  0
 10 11  1  0
 11 12  1  0
 12 13  2  0
 12 14  1  0
  7 15  1  0
 15 16  1  0
 15 17  1  0
  2 18  1  0
 18 19  2  0
 19 20  1  0
 20 21  2  0
 21 22  1  0
 22 23  1  0
 14  9  1  0
 22 18  1  0
  1 24  1  0
  1 25  1  0
  1 26  1  0
  2 27  1  0
  4 28  1  0
  4 29  1  0
  8 30  1  0
  8 31  1  0
  9 32  1  0
 10 33  1  0
 10 34  1  0
 11 35  1  0
 11 36  1  0
 14 37  1  0
 15 38  1  0
 16 39  1  0
 16 40  1  0
 16 41  1  0
 17 42  1  0
 17 43  1  0
 17 44  1  0
 20 45  1  0
 21 46  1  0
 23 47  1  0
 23 48  1  0
 23 49  1  0
M  END
>  <Energy>  (336) 
4361.5485199197883

>  <compound_id>  (336) 
53496

>  <target_id>  (336) 
1

>  <reference_id>  (336) 
98

>  <inspiration_ids>  (336) 
[101, 98]

>  <energy_score>  (336) 
4265.90957611586

>  <distance_score>  (336) 
11.800367064006432

>  <path>  (336) 
/opt/xchem-fragalysis-2/maxwin/BulkDock/SCRATCH/511024/C53496-P98/C53496-P98.minimised.mol

>  <scratch_subdir>  (336) 
/opt/xchem-fragalysis-2/maxwin/BulkDock/SCRATCH/511024/C53496-P98

>  <fragmenstein_runtime>  (336) 
49.007184743881226

>  <fragmenstein_outcome>  (336) 
too moved

>  <fragmenstein_mode>  (336) 
expansion

>  <fragmenstein_error>  (336) 


$$$$
C53497-P101
     RDKit          3D

 36 39  0  0  0  0  0  0  0  0999 V2000
   12.0471   -6.5751   21.4978 O   0  0  0  0  0  0  0  0  0  0  0  0
   11.9803   -7.0709   20.3773 C   0  0  0  0  0  0  0  0  0  0  0  0
   10.8509   -8.8330   19.8669 C   0  0  0  0  0  0  0  0  0  0  0  0
   10.1617  -10.3285   18.6740 N   0  0  0  0  0  0  0  0  0  0  0  0
    8.2503  -10.4250   18.7992 C   0  0  0  0  0  0  0  0  0  0  0  0
    7.7355   -9.7571   17.9737 O   0  0  0  0  0  0  0  0  0  0  0  0
    6.8499  -11.4325   19.7587 C   0  0  0  0  0  0  0  0  0  0  0  0
    6.0887  -11.5443   20.9029 C   0  0  0  0  0  0  0  0  0  0  0  0
    4.8459  -11.9411   21.1802 N   0  0  0  0  0  0  0  0  0  0  0  0
    4.4010  -12.9332   20.5316 C   0  0  0  0  0  0  0  0  0  0  0  0
    4.9083  -13.1608   19.3528 C   0  0  0  0  0  0  0  0  0  0  0  0
    4.1127  -14.2461   18.5441 N   0  0  0  0  0  0  0  0  0  0  0  0
    2.8452  -14.6352   18.9313 C   0  0  0  0  0  0  0  0  0  0  0  0
    2.3051  -15.3635   17.9959 C   0  0  0  0  0  0  0  0  0  0  0  0
    3.0263  -15.5632   16.9823 N   0  0  0  0  0  0  0  0  0  0  0  0
    4.1725  -15.1227   17.4727 C   0  0  0  0  0  0  0  0  0  0  0  0
    5.9290  -12.1817   19.0029 N   0  0  0  0  0  0  0  0  0  0  0  0
   11.4089   -9.4043   17.2448 C   0  0  0  0  0  0  0  0  0  0  0  0
   12.3905   -7.3576   17.0574 C   0  0  0  0  0  0  0  0  0  0  0  0
   12.0950   -6.7171   15.8589 C   0  0  0  0  0  0  0  0  0  0  0  0
   12.7128   -5.5862   16.3677 C   0  0  0  0  0  0  0  0  0  0  0  0
   12.5949   -6.0926   18.8158 N   0  0  0  0  0  0  0  0  0  0  0  0
   11.1838   -9.4849   20.6917 H   0  0  0  0  0  0  0  0  0  0  0  0
    9.8598   -8.4801   20.2021 H   0  0  0  0  0  0  0  0  0  0  0  0
    6.2902  -11.1648   21.9139 H   0  0  0  0  0  0  0  0  0  0  0  0
    3.5774  -13.3766   21.0414 H   0  0  0  0  0  0  0  0  0  0  0  0
    2.4771  -14.5777   19.9409 H   0  0  0  0  0  0  0  0  0  0  0  0
    1.5691  -15.9698   18.3273 H   0  0  0  0  0  0  0  0  0  0  0  0
    4.9047  -15.3662   16.7771 H   0  0  0  0  0  0  0  0  0  0  0  0
   11.8792  -10.2584   16.5818 H   0  0  0  0  0  0  0  0  0  0  0  0
   10.6627   -9.6810   16.3565 H   0  0  0  0  0  0  0  0  0  0  0  0
   12.7919   -7.3455   15.3793 H   0  0  0  0  0  0  0  0  0  0  0  0
   11.0990   -6.5261   15.5891 H   0  0  0  0  0  0  0  0  0  0  0  0
   13.7347   -5.3169   16.1437 H   0  0  0  0  0  0  0  0  0  0  0  0
   12.0635   -4.7559   16.6258 H   0  0  0  0  0  0  0  0  0  0  0  0
   12.1796   -5.1433   18.7544 H   0  0  0  0  0  0  0  0  0  0  0  0
  1  2  2  0
  2  3  1  0
  3  4  1  0
  4  5  1  0
  5  6  2  0
  5  7  1  0
  7  8  2  0
  8  9  1  0
  9 10  2  0
 10 11  1  0
 11 12  1  0
 12 13  1  0
 13 14  2  0
 14 15  1  0
 15 16  2  0
 11 17  2  0
  4 18  1  0
 18 19  1  0
 19 20  1  0
 20 21  1  0
 19 22  1  0
 22  2  1  0
 17  7  1  0
 21 19  1  0
 16 12  1  0
  3 23  1  0
  3 24  1  0
  8 25  1  0
 10 26  1  0
 13 27  1  0
 14 28  1  0
 16 29  1  0
 18 30  1  0
 18 31  1  0
 20 32  1  0
 20 33  1  0
 21 34  1  0
 21 35  1  0
 22 36  1  0
M  END
>  <Energy>  (337) 
1427.0689880635086

>  <compound_id>  (337) 
53497

>  <target_id>  (337) 
1

>  <reference_id>  (337) 
101

>  <inspiration_ids>  (337) 
[101, 98]

>  <energy_score>  (337) 
1227.025630847332

>  <distance_score>  (337) 
13.218525540609438

>  <path>  (337) 
/opt/xchem-fragalysis-2/maxwin/BulkDock/SCRATCH/511024/C53497-P101/C53497-P101.minimised.mol

>  <scratch_subdir>  (337) 
/opt/xchem-fragalysis-2/maxwin/BulkDock/SCRATCH/511024/C53497-P101

>  <fragmenstein_runtime>  (337) 
14.96747612953186

>  <fragmenstein_outcome>  (337) 
too moved

>  <fragmenstein_mode>  (337) 
expansion

>  <fragmenstein_error>  (337) 


$$$$
C53497-P98
     RDKit          3D

 36 39  0  0  0  0  0  0  0  0999 V2000
    5.1563  -10.3190   14.8218 O   0  0  0  0  0  0  0  0  0  0  0  0
    5.2843   -9.7278   15.8778 C   0  0  0  0  0  0  0  0  0  0  0  0
    4.8731  -10.2113   17.3269 C   0  0  0  0  0  0  0  0  0  0  0  0
    5.8260  -11.2157   18.2714 N   0  0  0  0  0  0  0  0  0  0  0  0
    5.2988  -11.8181   19.8388 C   0  0  0  0  0  0  0  0  0  0  0  0
    5.4540  -11.3611   20.9303 O   0  0  0  0  0  0  0  0  0  0  0  0
    4.3300  -13.1111   19.9249 C   0  0  0  0  0  0  0  0  0  0  0  0
    4.5223  -13.8204   18.8553 C   0  0  0  0  0  0  0  0  0  0  0  0
    3.7346  -14.6677   18.1479 N   0  0  0  0  0  0  0  0  0  0  0  0
    2.5177  -15.0042   18.6367 C   0  0  0  0  0  0  0  0  0  0  0  0
    2.0852  -14.9285   20.0192 C   0  0  0  0  0  0  0  0  0  0  0  0
    0.5965  -16.1869   20.1981 N   0  0  0  0  0  0  0  0  0  0  0  0
   -0.9464  -16.3380   20.4150 C   0  0  0  0  0  0  0  0  0  0  0  0
   -1.6929  -17.2310   19.6947 C   0  0  0  0  0  0  0  0  0  0  0  0
   -0.8893  -17.8289   18.8103 N   0  0  0  0  0  0  0  0  0  0  0  0
    0.4203  -17.5123   19.0554 C   0  0  0  0  0  0  0  0  0  0  0  0
    3.0080  -13.6606   20.7384 N   0  0  0  0  0  0  0  0  0  0  0  0
    6.7819   -9.9124   17.9505 C   0  0  0  0  0  0  0  0  0  0  0  0
    6.1938   -8.3669   17.4486 C   0  0  0  0  0  0  0  0  0  0  0  0
    6.3687   -7.0504   18.1911 C   0  0  0  0  0  0  0  0  0  0  0  0
    5.0163   -7.5423   18.1039 C   0  0  0  0  0  0  0  0  0  0  0  0
    5.9235   -8.5180   16.0512 N   0  0  0  0  0  0  0  0  0  0  0  0
    4.2083   -9.4499   17.7417 H   0  0  0  0  0  0  0  0  0  0  0  0
    4.1290  -10.9595   16.9882 H   0  0  0  0  0  0  0  0  0  0  0  0
    5.5682  -13.8720   18.8400 H   0  0  0  0  0  0  0  0  0  0  0  0
    1.9645  -15.4741   17.8600 H   0  0  0  0  0  0  0  0  0  0  0  0
   -1.6159  -15.5434   20.6998 H   0  0  0  0  0  0  0  0  0  0  0  0
   -2.7678  -17.3527   19.6802 H   0  0  0  0  0  0  0  0  0  0  0  0
    1.2272  -17.8609   18.4103 H   0  0  0  0  0  0  0  0  0  0  0  0
    7.3965   -9.7538   18.8427 H   0  0  0  0  0  0  0  0  0  0  0  0
    7.4763  -10.2478   17.1639 H   0  0  0  0  0  0  0  0  0  0  0  0
    6.7337   -7.0176   19.2115 H   0  0  0  0  0  0  0  0  0  0  0  0
    6.5018   -6.1596   17.6031 H   0  0  0  0  0  0  0  0  0  0  0  0
    4.3313   -7.0085   17.4467 H   0  0  0  0  0  0  0  0  0  0  0  0
    4.5526   -7.7918   19.0311 H   0  0  0  0  0  0  0  0  0  0  0  0
    6.4710   -8.1356   15.2907 H   0  0  0  0  0  0  0  0  0  0  0  0
  1  2  2  0
  2  3  1  0
  3  4  1  0
  4  5  1  0
  5  6  2  0
  5  7  1  0
  7  8  2  0
  8  9  1  0
  9 10  2  0
 10 11  1  0
 11 12  1  0
 12 13  1  0
 13 14  2  0
 14 15  1  0
 15 16  2  0
 11 17  2  0
  4 18  1  0
 18 19  1  0
 19 20  1  0
 20 21  1  0
 19 22  1  0
 22  2  1  0
 17  7  1  0
 21 19  1  0
 16 12  1  0
  3 23  1  0
  3 24  1  0
  8 25  1  0
 10 26  1  0
 13 27  1  0
 14 28  1  0
 16 29  1  0
 18 30  1  0
 18 31  1  0
 20 32  1  0
 20 33  1  0
 21 34  1  0
 21 35  1  0
 22 36  1  0
M  END
>  <Energy>  (338) 
725.8294905146513

>  <compound_id>  (338) 
53497

>  <target_id>  (338) 
1

>  <reference_id>  (338) 
98

>  <inspiration_ids>  (338) 
[101, 98]

>  <energy_score>  (338) 
525.7861332984589

>  <distance_score>  (338) 
12.669964473043397

>  <path>  (338) 
/opt/xchem-fragalysis-2/maxwin/BulkDock/SCRATCH/511024/C53497-P98/C53497-P98.minimised.mol

>  <scratch_subdir>  (338) 
/opt/xchem-fragalysis-2/maxwin/BulkDock/SCRATCH/511024/C53497-P98

>  <fragmenstein_runtime>  (338) 
20.59722900390625

>  <fragmenstein_outcome>  (338) 
too moved

>  <fragmenstein_mode>  (338) 
expansion

>  <fragmenstein_error>  (338) 


$$$$
C53499-P101
     RDKit          3D

 36 38  0  0  0  0  0  0  0  0999 V2000
   -3.8436  -17.8550   17.3268 C   0  0  0  0  0  0  0  0  0  0  0  0
   -2.7567  -18.2232   18.5596 C   0  0  0  0  0  0  0  0  0  0  0  0
   -3.4608  -19.0043   19.3381 N   0  0  0  0  0  0  0  0  0  0  0  0
   -4.2138  -17.9520   19.6185 C   0  0  0  0  0  0  0  0  0  0  0  0
   -3.2482  -16.9797   19.9904 C   0  0  0  0  0  0  0  0  0  0  0  0
   -2.0156  -17.2914   19.5064 N   0  0  0  0  0  0  0  0  0  0  0  0
   -0.9969  -16.0004   19.6037 C   0  0  0  0  0  0  0  0  0  0  0  0
   -1.5075  -14.8288   18.6285 C   0  0  0  0  0  0  0  0  0  0  0  0
   -0.5552  -13.6396   17.8511 N   0  0  0  0  0  0  0  0  0  0  0  0
    1.0936  -14.0448   17.7813 C   0  0  0  0  0  0  0  0  0  0  0  0
    2.0055  -15.0778   18.5417 C   0  0  0  0  0  0  0  0  0  0  0  0
    3.6899  -14.6441   18.2474 N   0  0  0  0  0  0  0  0  0  0  0  0
    4.8819  -15.5023   17.9217 C   0  0  0  0  0  0  0  0  0  0  0  0
    6.3248  -15.2646   17.3852 C   0  0  0  0  0  0  0  0  0  0  0  0
    7.2364  -14.2003   17.8869 C   0  0  0  0  0  0  0  0  0  0  0  0
    6.6229  -12.9421   17.6581 N   0  0  0  0  0  0  0  0  0  0  0  0
    5.7661  -12.6940   18.6890 C   0  0  0  0  0  0  0  0  0  0  0  0
    6.2683  -11.9719   19.5671 O   0  0  0  0  0  0  0  0  0  0  0  0
    4.2692  -13.2252   18.6714 C   0  0  0  0  0  0  0  0  0  0  0  0
    0.8073  -16.1327   19.5051 N   0  0  0  0  0  0  0  0  0  0  0  0
   -4.1992  -16.8210   17.3820 H   0  0  0  0  0  0  0  0  0  0  0  0
   -4.6796  -18.5433   17.4838 H   0  0  0  0  0  0  0  0  0  0  0  0
   -3.5112  -18.0945   16.3377 H   0  0  0  0  0  0  0  0  0  0  0  0
   -5.2823  -18.0096   19.8306 H   0  0  0  0  0  0  0  0  0  0  0  0
   -3.2810  -16.1123   20.5925 H   0  0  0  0  0  0  0  0  0  0  0  0
   -2.1465  -15.0657   17.7857 H   0  0  0  0  0  0  0  0  0  0  0  0
    1.2986  -13.9546   16.7270 H   0  0  0  0  0  0  0  0  0  0  0  0
    4.5704  -15.8561   16.9561 H   0  0  0  0  0  0  0  0  0  0  0  0
    5.0661  -16.1902   18.7307 H   0  0  0  0  0  0  0  0  0  0  0  0
    6.3264  -15.2095   16.2886 H   0  0  0  0  0  0  0  0  0  0  0  0
    6.8543  -16.2173   17.5484 H   0  0  0  0  0  0  0  0  0  0  0  0
    8.1821  -14.2174   17.3336 H   0  0  0  0  0  0  0  0  0  0  0  0
    7.4719  -14.3483   18.9487 H   0  0  0  0  0  0  0  0  0  0  0  0
    7.3326  -12.2192   17.7205 H   0  0  0  0  0  0  0  0  0  0  0  0
    3.7632  -12.5262   18.0215 H   0  0  0  0  0  0  0  0  0  0  0  0
    4.0795  -13.1094   19.7371 H   0  0  0  0  0  0  0  0  0  0  0  0
  1  2  1  0
  2  3  2  0
  3  4  1  0
  4  5  2  0
  5  6  1  0
  6  7  1  0
  7  8  2  0
  8  9  1  0
  9 10  2  0
 10 11  1  0
 11 12  1  0
 12 13  1  0
 13 14  1  0
 14 15  1  0
 15 16  1  0
 16 17  1  0
 17 18  2  0
 17 19  1  0
 11 20  2  0
  6  2  1  0
 20  7  1  0
 19 12  1  0
  1 21  1  0
  1 22  1  0
  1 23  1  0
  4 24  1  0
  5 25  1  0
  8 26  1  0
 10 27  1  0
 13 28  1  0
 13 29  1  0
 14 30  1  0
 14 31  1  0
 15 32  1  0
 15 33  1  0
 16 34  1  0
 19 35  1  0
 19 36  1  0
M  END
>  <Energy>  (339) 
683.72933443023157

>  <compound_id>  (339) 
53499

>  <target_id>  (339) 
1

>  <reference_id>  (339) 
101

>  <inspiration_ids>  (339) 
[101, 98]

>  <energy_score>  (339) 
546.6583602667006

>  <distance_score>  (339) 
13.739114021232671

>  <path>  (339) 
/opt/xchem-fragalysis-2/maxwin/BulkDock/SCRATCH/511024/C53499-P101/C53499-P101.minimised.mol

>  <scratch_subdir>  (339) 
/opt/xchem-fragalysis-2/maxwin/BulkDock/SCRATCH/511024/C53499-P101

>  <fragmenstein_runtime>  (339) 
18.560461282730103

>  <fragmenstein_outcome>  (339) 
too moved

>  <fragmenstein_mode>  (339) 
expansion

>  <fragmenstein_error>  (339) 


$$$$
C53499-P98
     RDKit          3D

 36 38  0  0  0  0  0  0  0  0999 V2000
    2.1412  -17.1452   16.5759 C   0  0  0  0  0  0  0  0  0  0  0  0
    2.6462  -15.4084   17.2030 C   0  0  0  0  0  0  0  0  0  0  0  0
    1.8420  -14.5941   17.8326 N   0  0  0  0  0  0  0  0  0  0  0  0
    2.6410  -14.4952   18.8438 C   0  0  0  0  0  0  0  0  0  0  0  0
    3.8234  -13.8753   18.4973 C   0  0  0  0  0  0  0  0  0  0  0  0
    4.1888  -14.9931   17.8179 N   0  0  0  0  0  0  0  0  0  0  0  0
    5.6774  -15.1713   17.6533 C   0  0  0  0  0  0  0  0  0  0  0  0
    6.3459  -15.9856   18.5539 C   0  0  0  0  0  0  0  0  0  0  0  0
    7.6765  -15.9040   18.8303 N   0  0  0  0  0  0  0  0  0  0  0  0
    8.3327  -14.8555   18.2701 C   0  0  0  0  0  0  0  0  0  0  0  0
    7.7406  -13.9031   17.4450 C   0  0  0  0  0  0  0  0  0  0  0  0
    8.5053  -12.8446   16.9209 N   0  0  0  0  0  0  0  0  0  0  0  0
    8.0183  -12.1645   15.7279 C   0  0  0  0  0  0  0  0  0  0  0  0
    9.1488  -12.1299   14.7079 C   0  0  0  0  0  0  0  0  0  0  0  0
   10.3152  -11.2466   15.1052 C   0  0  0  0  0  0  0  0  0  0  0  0
   11.1340  -11.6980   16.2001 N   0  0  0  0  0  0  0  0  0  0  0  0
   10.7173  -11.7074   17.5005 C   0  0  0  0  0  0  0  0  0  0  0  0
   11.5583  -11.4272   18.3635 O   0  0  0  0  0  0  0  0  0  0  0  0
    9.2421  -11.9753   17.8729 C   0  0  0  0  0  0  0  0  0  0  0  0
    6.4193  -14.0947   17.1407 N   0  0  0  0  0  0  0  0  0  0  0  0
    1.8622  -17.7544   17.4593 H   0  0  0  0  0  0  0  0  0  0  0  0
    2.9491  -17.5810   15.9442 H   0  0  0  0  0  0  0  0  0  0  0  0
    1.2715  -17.4367   16.1401 H   0  0  0  0  0  0  0  0  0  0  0  0
    2.2967  -14.5651   19.8646 H   0  0  0  0  0  0  0  0  0  0  0  0
    4.5528  -13.2545   19.0029 H   0  0  0  0  0  0  0  0  0  0  0  0
    5.8463  -16.7013   19.1875 H   0  0  0  0  0  0  0  0  0  0  0  0
    9.3912  -14.8074   18.5053 H   0  0  0  0  0  0  0  0  0  0  0  0
    7.1805  -12.6990   15.2644 H   0  0  0  0  0  0  0  0  0  0  0  0
    7.6550  -11.1569   15.9595 H   0  0  0  0  0  0  0  0  0  0  0  0
    8.7411  -11.7583   13.7599 H   0  0  0  0  0  0  0  0  0  0  0  0
    9.5087  -13.1495   14.5182 H   0  0  0  0  0  0  0  0  0  0  0  0
   10.9846  -11.2020   14.2430 H   0  0  0  0  0  0  0  0  0  0  0  0
    9.9818  -10.2422   15.3577 H   0  0  0  0  0  0  0  0  0  0  0  0
   12.1183  -11.4348   16.1253 H   0  0  0  0  0  0  0  0  0  0  0  0
    8.7346  -11.0088   17.9684 H   0  0  0  0  0  0  0  0  0  0  0  0
    9.2575  -12.4191   18.8759 H   0  0  0  0  0  0  0  0  0  0  0  0
  1  2  1  0
  2  3  2  0
  3  4  1  0
  4  5  2  0
  5  6  1  0
  6  7  1  0
  7  8  2  0
  8  9  1  0
  9 10  2  0
 10 11  1  0
 11 12  1  0
 12 13  1  0
 13 14  1  0
 14 15  1  0
 15 16  1  0
 16 17  1  0
 17 18  2  0
 17 19  1  0
 11 20  2  0
  6  2  1  0
 20  7  1  0
 19 12  1  0
  1 21  1  0
  1 22  1  0
  1 23  1  0
  4 24  1  0
  5 25  1  0
  8 26  1  0
 10 27  1  0
 13 28  1  0
 13 29  1  0
 14 30  1  0
 14 31  1  0
 15 32  1  0
 15 33  1  0
 16 34  1  0
 19 35  1  0
 19 36  1  0
M  END
>  <Energy>  (340) 
277.39388368607365

>  <compound_id>  (340) 
53499

>  <target_id>  (340) 
1

>  <reference_id>  (340) 
98

>  <inspiration_ids>  (340) 
[101, 98]

>  <energy_score>  (340) 
140.32290952254652

>  <distance_score>  (340) 
14.424966221574076

>  <path>  (340) 
/opt/xchem-fragalysis-2/maxwin/BulkDock/SCRATCH/511024/C53499-P98/C53499-P98.minimised.mol

>  <scratch_subdir>  (340) 
/opt/xchem-fragalysis-2/maxwin/BulkDock/SCRATCH/511024/C53499-P98

>  <fragmenstein_runtime>  (340) 
28.1370906829834

>  <fragmenstein_outcome>  (340) 
too moved

>  <fragmenstein_mode>  (340) 
expansion

>  <fragmenstein_error>  (340) 


$$$$
C53500-P101
     RDKit          3D

 37 39  0  0  0  0  0  0  0  0999 V2000
    6.9222  -12.8194   23.7775 O   0  0  0  0  0  0  0  0  0  0  0  0
    5.9805  -12.0483   23.9086 C   0  0  0  0  0  0  0  0  0  0  0  0
    5.9350  -10.7920   23.3754 O   0  0  0  0  0  0  0  0  0  0  0  0
    7.1534  -10.2151   22.7859 C   0  0  0  0  0  0  0  0  0  0  0  0
    7.5501  -10.8524   21.4473 C   0  0  0  0  0  0  0  0  0  0  0  0
    8.4133  -10.0325   20.4741 C   0  0  0  0  0  0  0  0  0  0  0  0
    8.6240  -10.8814   19.1985 C   0  0  0  0  0  0  0  0  0  0  0  0
   10.0104  -11.4818   19.3432 C   0  0  0  0  0  0  0  0  0  0  0  0
   10.7008  -10.5702   20.1946 N   0  0  0  0  0  0  0  0  0  0  0  0
    9.8534   -9.7455   20.8987 C   0  0  0  0  0  0  0  0  0  0  0  0
   10.2440   -8.9401   21.7263 O   0  0  0  0  0  0  0  0  0  0  0  0
    4.7866  -12.3870   24.7769 C   0  0  0  0  0  0  0  0  0  0  0  0
    4.8130  -13.5583   25.5297 C   0  0  0  0  0  0  0  0  0  0  0  0
    3.9170  -13.8290   26.5187 N   0  0  0  0  0  0  0  0  0  0  0  0
    2.9671  -12.8858   26.7270 C   0  0  0  0  0  0  0  0  0  0  0  0
    2.8887  -11.7376   25.9584 C   0  0  0  0  0  0  0  0  0  0  0  0
    1.9743  -10.7095   26.2975 N   0  0  0  0  0  0  0  0  0  0  0  0
    1.0754  -10.6515   27.3415 C   0  0  0  0  0  0  0  0  0  0  0  0
    0.4718   -9.4185   27.2496 C   0  0  0  0  0  0  0  0  0  0  0  0
    0.9478   -8.7233   26.1736 N   0  0  0  0  0  0  0  0  0  0  0  0
    1.8598   -9.5056   25.6370 C   0  0  0  0  0  0  0  0  0  0  0  0
    3.7809  -11.4840   24.9511 N   0  0  0  0  0  0  0  0  0  0  0  0
    7.9662  -10.2846   23.5175 H   0  0  0  0  0  0  0  0  0  0  0  0
    6.9313   -9.1530   22.6389 H   0  0  0  0  0  0  0  0  0  0  0  0
    8.0566  -11.8012   21.6667 H   0  0  0  0  0  0  0  0  0  0  0  0
    6.6206  -11.1324   20.9329 H   0  0  0  0  0  0  0  0  0  0  0  0
    7.9067   -9.0992   20.2170 H   0  0  0  0  0  0  0  0  0  0  0  0
    8.5632  -10.2527   18.3105 H   0  0  0  0  0  0  0  0  0  0  0  0
    7.8671  -11.6607   19.0557 H   0  0  0  0  0  0  0  0  0  0  0  0
   10.5353  -11.5785   18.3895 H   0  0  0  0  0  0  0  0  0  0  0  0
    9.9787  -12.4552   19.8425 H   0  0  0  0  0  0  0  0  0  0  0  0
   11.6865  -10.6126   20.4231 H   0  0  0  0  0  0  0  0  0  0  0  0
    5.6037  -14.2929   25.4065 H   0  0  0  0  0  0  0  0  0  0  0  0
    2.2859  -13.1134   27.5380 H   0  0  0  0  0  0  0  0  0  0  0  0
    0.9347  -11.4516   28.0524 H   0  0  0  0  0  0  0  0  0  0  0  0
   -0.2881   -9.0013   27.8988 H   0  0  0  0  0  0  0  0  0  0  0  0
    2.4650   -9.2647   24.7716 H   0  0  0  0  0  0  0  0  0  0  0  0
  1  2  2  0
  2  3  1  0
  3  4  1  0
  4  5  1  0
  5  6  1  0
  6  7  1  0
  7  8  1  0
  8  9  1  0
  9 10  1  0
 10 11  2  0
  2 12  1  0
 12 13  2  0
 13 14  1  0
 14 15  2  0
 15 16  1  0
 16 17  1  0
 17 18  1  0
 18 19  2  0
 19 20  1  0
 20 21  2  0
 16 22  2  0
 10  6  1  0
 22 12  1  0
 21 17  1  0
  4 23  1  0
  4 24  1  0
  5 25  1  0
  5 26  1  0
  6 27  1  0
  7 28  1  0
  7 29  1  0
  8 30  1  0
  8 31  1  0
  9 32  1  0
 13 33  1  0
 15 34  1  0
 18 35  1  0
 19 36  1  0
 21 37  1  0
M  END
>  <Energy>  (341) 
97.596450286750652

>  <compound_id>  (341) 
53500

>  <target_id>  (341) 
1

>  <reference_id>  (341) 
101

>  <inspiration_ids>  (341) 
[101, 98]

>  <energy_score>  (341) 
-28.827025600828904

>  <distance_score>  (341) 
14.991203630661692

>  <path>  (341) 
/opt/xchem-fragalysis-2/maxwin/BulkDock/SCRATCH/511024/C53500-P101/C53500-P101.minimised.mol

>  <scratch_subdir>  (341) 
/opt/xchem-fragalysis-2/maxwin/BulkDock/SCRATCH/511024/C53500-P101

>  <fragmenstein_runtime>  (341) 
34.29968214035034

>  <fragmenstein_outcome>  (341) 
too moved

>  <fragmenstein_mode>  (341) 
expansion

>  <fragmenstein_error>  (341) 


$$$$
C53500-P98
     RDKit          3D

 37 39  0  0  0  0  0  0  0  0999 V2000
   -0.9092  -10.8271   16.8372 O   0  0  0  0  0  0  0  0  0  0  0  0
   -0.4340  -11.7890   16.2400 C   0  0  0  0  0  0  0  0  0  0  0  0
    0.8902  -11.8769   15.8770 O   0  0  0  0  0  0  0  0  0  0  0  0
    1.6683  -10.6781   16.1866 C   0  0  0  0  0  0  0  0  0  0  0  0
    3.1892  -10.8377   15.9275 C   0  0  0  0  0  0  0  0  0  0  0  0
    3.9983   -9.5406   16.1043 C   0  0  0  0  0  0  0  0  0  0  0  0
    3.6830   -8.5040   15.0134 C   0  0  0  0  0  0  0  0  0  0  0  0
    5.0168   -7.8816   14.6818 C   0  0  0  0  0  0  0  0  0  0  0  0
    5.9362   -8.9346   14.9319 N   0  0  0  0  0  0  0  0  0  0  0  0
    5.4962   -9.7610   15.9378 C   0  0  0  0  0  0  0  0  0  0  0  0
    6.2168  -10.4742   16.6153 O   0  0  0  0  0  0  0  0  0  0  0  0
   -1.3185  -12.9509   15.8589 C   0  0  0  0  0  0  0  0  0  0  0  0
   -2.6601  -12.9253   16.2333 C   0  0  0  0  0  0  0  0  0  0  0  0
   -3.5522  -13.9131   15.9246 N   0  0  0  0  0  0  0  0  0  0  0  0
   -3.0490  -14.9573   15.2279 C   0  0  0  0  0  0  0  0  0  0  0  0
   -1.7157  -15.0150   14.8527 C   0  0  0  0  0  0  0  0  0  0  0  0
   -1.2227  -16.1175   14.1087 N   0  0  0  0  0  0  0  0  0  0  0  0
   -1.8882  -17.2460   13.6837 C   0  0  0  0  0  0  0  0  0  0  0  0
   -0.9569  -17.9937   12.9998 C   0  0  0  0  0  0  0  0  0  0  0  0
    0.2554  -17.3653   12.9846 N   0  0  0  0  0  0  0  0  0  0  0  0
    0.0722  -16.2522   13.6602 C   0  0  0  0  0  0  0  0  0  0  0  0
   -0.8318  -14.0093   15.1604 N   0  0  0  0  0  0  0  0  0  0  0  0
    1.5227  -10.4238   17.2436 H   0  0  0  0  0  0  0  0  0  0  0  0
    1.2744   -9.8654   15.5660 H   0  0  0  0  0  0  0  0  0  0  0  0
    3.3393  -11.2503   14.9213 H   0  0  0  0  0  0  0  0  0  0  0  0
    3.5727  -11.6102   16.6064 H   0  0  0  0  0  0  0  0  0  0  0  0
    3.8358   -9.1050   17.0972 H   0  0  0  0  0  0  0  0  0  0  0  0
    2.9479   -7.7624   15.3415 H   0  0  0  0  0  0  0  0  0  0  0  0
    3.2763   -8.9934   14.1192 H   0  0  0  0  0  0  0  0  0  0  0  0
    5.0823   -7.5581   13.6418 H   0  0  0  0  0  0  0  0  0  0  0  0
    5.2409   -7.0534   15.3605 H   0  0  0  0  0  0  0  0  0  0  0  0
    6.9530   -8.8858   14.7823 H   0  0  0  0  0  0  0  0  0  0  0  0
   -3.0741  -12.0857   16.7848 H   0  0  0  0  0  0  0  0  0  0  0  0
   -3.7729  -15.7291   14.9958 H   0  0  0  0  0  0  0  0  0  0  0  0
   -2.9295  -17.4426   13.8884 H   0  0  0  0  0  0  0  0  0  0  0  0
   -1.0989  -18.9535   12.5186 H   0  0  0  0  0  0  0  0  0  0  0  0
    0.8326  -15.5062   13.8563 H   0  0  0  0  0  0  0  0  0  0  0  0
  1  2  2  0
  2  3  1  0
  3  4  1  0
  4  5  1  0
  5  6  1  0
  6  7  1  0
  7  8  1  0
  8  9  1  0
  9 10  1  0
 10 11  2  0
  2 12  1  0
 12 13  2  0
 13 14  1  0
 14 15  2  0
 15 16  1  0
 16 17  1  0
 17 18  1  0
 18 19  2  0
 19 20  1  0
 20 21  2  0
 16 22  2  0
 10  6  1  0
 22 12  1  0
 21 17  1  0
  4 23  1  0
  4 24  1  0
  5 25  1  0
  5 26  1  0
  6 27  1  0
  7 28  1  0
  7 29  1  0
  8 30  1  0
  8 31  1  0
  9 32  1  0
 13 33  1  0
 15 34  1  0
 18 35  1  0
 19 36  1  0
 21 37  1  0
M  END
>  <Energy>  (342) 
95.775345564710761

>  <compound_id>  (342) 
53500

>  <target_id>  (342) 
1

>  <reference_id>  (342) 
98

>  <inspiration_ids>  (342) 
[101, 98]

>  <energy_score>  (342) 
-30.648130322870657

>  <distance_score>  (342) 
15.213997089501918

>  <path>  (342) 
/opt/xchem-fragalysis-2/maxwin/BulkDock/SCRATCH/511024/C53500-P98/C53500-P98.minimised.mol

>  <scratch_subdir>  (342) 
/opt/xchem-fragalysis-2/maxwin/BulkDock/SCRATCH/511024/C53500-P98

>  <fragmenstein_runtime>  (342) 
15.341711521148682

>  <fragmenstein_outcome>  (342) 
too moved

>  <fragmenstein_mode>  (342) 
expansion

>  <fragmenstein_error>  (342) 


$$$$
C53504-P101
     RDKit          3D

 37 39  0  0  0  0  0  0  0  0999 V2000
    3.7137  -12.1038   21.2913 O   0  0  0  0  0  0  0  0  0  0  0  0
    3.9976  -13.1148   20.6725 C   0  0  0  0  0  0  0  0  0  0  0  0
    5.8956  -12.9083   19.7920 N   0  0  0  0  0  0  0  0  0  0  0  0
    7.4161  -11.2980   19.7418 C   0  0  0  0  0  0  0  0  0  0  0  0
    9.4905  -10.4359   19.1339 C   0  0  0  0  0  0  0  0  0  0  0  0
   11.3142   -9.1885   18.7579 N   0  0  0  0  0  0  0  0  0  0  0  0
   11.3136   -8.0211   20.4176 C   0  0  0  0  0  0  0  0  0  0  0  0
   12.4135   -6.3109   19.8594 C   0  0  0  0  0  0  0  0  0  0  0  0
   12.9928   -6.2998   17.9134 N   0  0  0  0  0  0  0  0  0  0  0  0
   12.0380   -7.8971   17.1077 C   0  0  0  0  0  0  0  0  0  0  0  0
   12.1281   -7.4065   15.9880 O   0  0  0  0  0  0  0  0  0  0  0  0
    2.3122  -14.6194   20.8555 C   0  0  0  0  0  0  0  0  0  0  0  0
    0.8107  -14.7878   22.0463 C   0  0  0  0  0  0  0  0  0  0  0  0
    0.8473  -14.2299   23.5125 N   0  0  0  0  0  0  0  0  0  0  0  0
   -0.3607  -14.1849   23.7387 C   0  0  0  0  0  0  0  0  0  0  0  0
   -0.9405  -14.8865   22.7877 C   0  0  0  0  0  0  0  0  0  0  0  0
   -1.9298  -15.2558   24.3430 N   0  0  0  0  0  0  0  0  0  0  0  0
   -2.3854  -14.1694   25.6206 C   0  0  0  0  0  0  0  0  0  0  0  0
   -3.7559  -14.0070   25.5976 C   0  0  0  0  0  0  0  0  0  0  0  0
   -4.2190  -14.8413   24.6691 N   0  0  0  0  0  0  0  0  0  0  0  0
   -3.2048  -15.6735   24.6801 C   0  0  0  0  0  0  0  0  0  0  0  0
    0.6701  -15.2959   21.6675 N   0  0  0  0  0  0  0  0  0  0  0  0
    6.1358  -13.7934   19.3589 H   0  0  0  0  0  0  0  0  0  0  0  0
    7.4197  -11.0734   20.8159 H   0  0  0  0  0  0  0  0  0  0  0  0
    6.7815  -10.5623   19.2299 H   0  0  0  0  0  0  0  0  0  0  0  0
   10.0343  -11.0570   19.8620 H   0  0  0  0  0  0  0  0  0  0  0  0
    9.5299  -10.9509   18.1591 H   0  0  0  0  0  0  0  0  0  0  0  0
   10.2480   -7.9179   20.6325 H   0  0  0  0  0  0  0  0  0  0  0  0
   11.8163   -8.5685   21.2432 H   0  0  0  0  0  0  0  0  0  0  0  0
   13.3394   -6.2960   20.4634 H   0  0  0  0  0  0  0  0  0  0  0  0
   11.8435   -5.4087   20.0392 H   0  0  0  0  0  0  0  0  0  0  0  0
   12.9411   -5.4469   17.3417 H   0  0  0  0  0  0  0  0  0  0  0  0
   -0.0759  -13.7217   21.9557 H   0  0  0  0  0  0  0  0  0  0  0  0
   -0.6446  -13.9653   24.6819 H   0  0  0  0  0  0  0  0  0  0  0  0
   -1.6236  -13.5974   26.1359 H   0  0  0  0  0  0  0  0  0  0  0  0
   -4.3624  -13.2839   26.1257 H   0  0  0  0  0  0  0  0  0  0  0  0
   -3.1083  -16.4082   25.4766 H   0  0  0  0  0  0  0  0  0  0  0  0
  1  2  2  0
  2  3  1  0
  3  4  1  0
  4  5  1  0
  5  6  1  0
  6  7  1  0
  7  8  1  0
  8  9  1  0
  9 10  1  0
 10 11  2  0
  2 12  1  0
 12 13  2  0
 13 14  1  0
 14 15  2  0
 15 16  1  0
 16 17  1  0
 17 18  1  0
 18 19  2  0
 19 20  1  0
 20 21  2  0
 16 22  2  0
 10  6  1  0
 22 12  1  0
 21 17  1  0
  3 23  1  0
  4 24  1  0
  4 25  1  0
  5 26  1  0
  5 27  1  0
  7 28  1  0
  7 29  1  0
  8 30  1  0
  8 31  1  0
  9 32  1  0
 13 33  1  0
 15 34  1  0
 18 35  1  0
 19 36  1  0
 21 37  1  0
M  END
>  <Energy>  (343) 
3232.4852827186992

>  <compound_id>  (343) 
53504

>  <target_id>  (343) 
1

>  <reference_id>  (343) 
101

>  <inspiration_ids>  (343) 
[101, 98]

>  <energy_score>  (343) 
3150.665917581617

>  <distance_score>  (343) 
12.893349510026328

>  <path>  (343) 
/opt/xchem-fragalysis-2/maxwin/BulkDock/SCRATCH/511024/C53504-P101/C53504-P101.minimised.mol

>  <scratch_subdir>  (343) 
/opt/xchem-fragalysis-2/maxwin/BulkDock/SCRATCH/511024/C53504-P101

>  <fragmenstein_runtime>  (343) 
26.69370198249817

>  <fragmenstein_outcome>  (343) 
too moved

>  <fragmenstein_mode>  (343) 
expansion

>  <fragmenstein_error>  (343) 


$$$$
C53504-P98
     RDKit          3D

 37 39  0  0  0  0  0  0  0  0999 V2000
  -10.2930  -20.8707   30.4634 O   0  0  0  0  0  0  0  0  0  0  0  0
  -10.4409  -20.4429   29.3194 C   0  0  0  0  0  0  0  0  0  0  0  0
   -9.3143  -19.2743   28.2774 N   0  0  0  0  0  0  0  0  0  0  0  0
   -7.6085  -18.5428   28.5926 C   0  0  0  0  0  0  0  0  0  0  0  0
   -6.6431  -16.9678   28.7717 C   0  0  0  0  0  0  0  0  0  0  0  0
   -5.9224  -16.0991   27.6354 N   0  0  0  0  0  0  0  0  0  0  0  0
   -6.6677  -15.0740   26.9060 C   0  0  0  0  0  0  0  0  0  0  0  0
   -5.6606  -14.3276   26.0218 C   0  0  0  0  0  0  0  0  0  0  0  0
   -4.4170  -14.6389   26.6247 N   0  0  0  0  0  0  0  0  0  0  0  0
   -4.5212  -15.6699   27.5653 C   0  0  0  0  0  0  0  0  0  0  0  0
   -3.5149  -16.0330   28.1480 O   0  0  0  0  0  0  0  0  0  0  0  0
  -11.7723  -21.1619   28.6487 C   0  0  0  0  0  0  0  0  0  0  0  0
  -12.2972  -21.8701   29.7512 C   0  0  0  0  0  0  0  0  0  0  0  0
  -12.1087  -23.2033   29.9752 N   0  0  0  0  0  0  0  0  0  0  0  0
  -11.5888  -23.8839   28.9573 C   0  0  0  0  0  0  0  0  0  0  0  0
  -11.5070  -23.3114   27.7112 C   0  0  0  0  0  0  0  0  0  0  0  0
  -11.7964  -24.2164   26.6596 N   0  0  0  0  0  0  0  0  0  0  0  0
  -11.6810  -25.5962   26.6819 C   0  0  0  0  0  0  0  0  0  0  0  0
  -12.5804  -26.0586   25.7567 C   0  0  0  0  0  0  0  0  0  0  0  0
  -13.1609  -25.0175   25.1006 N   0  0  0  0  0  0  0  0  0  0  0  0
  -12.5678  -23.9349   25.5651 C   0  0  0  0  0  0  0  0  0  0  0  0
  -11.5455  -21.9482   27.5374 N   0  0  0  0  0  0  0  0  0  0  0  0
   -9.7448  -19.0567   27.4516 H   0  0  0  0  0  0  0  0  0  0  0  0
   -7.8709  -18.0147   27.6513 H   0  0  0  0  0  0  0  0  0  0  0  0
   -6.9142  -19.2227   28.0951 H   0  0  0  0  0  0  0  0  0  0  0  0
   -5.8303  -17.2605   29.4468 H   0  0  0  0  0  0  0  0  0  0  0  0
   -7.3039  -16.2802   29.3116 H   0  0  0  0  0  0  0  0  0  0  0  0
   -7.4783  -15.5315   26.3320 H   0  0  0  0  0  0  0  0  0  0  0  0
   -7.0968  -14.3902   27.6473 H   0  0  0  0  0  0  0  0  0  0  0  0
   -5.6568  -14.7063   24.9962 H   0  0  0  0  0  0  0  0  0  0  0  0
   -5.8260  -13.2475   26.0107 H   0  0  0  0  0  0  0  0  0  0  0  0
   -3.4970  -14.2929   26.3776 H   0  0  0  0  0  0  0  0  0  0  0  0
  -12.5584  -21.3803   30.6812 H   0  0  0  0  0  0  0  0  0  0  0  0
  -11.3901  -24.9245   29.1597 H   0  0  0  0  0  0  0  0  0  0  0  0
  -11.0392  -26.1148   27.3758 H   0  0  0  0  0  0  0  0  0  0  0  0
  -12.8409  -27.0825   25.5277 H   0  0  0  0  0  0  0  0  0  0  0  0
  -12.7350  -22.9284   25.2148 H   0  0  0  0  0  0  0  0  0  0  0  0
  1  2  2  0
  2  3  1  0
  3  4  1  0
  4  5  1  0
  5  6  1  0
  6  7  1  0
  7  8  1  0
  8  9  1  0
  9 10  1  0
 10 11  2  0
  2 12  1  0
 12 13  2  0
 13 14  1  0
 14 15  2  0
 15 16  1  0
 16 17  1  0
 17 18  1  0
 18 19  2  0
 19 20  1  0
 20 21  2  0
 16 22  2  0
 10  6  1  0
 22 12  1  0
 21 17  1  0
  3 23  1  0
  4 24  1  0
  4 25  1  0
  5 26  1  0
  5 27  1  0
  7 28  1  0
  7 29  1  0
  8 30  1  0
  8 31  1  0
  9 32  1  0
 13 33  1  0
 15 34  1  0
 18 35  1  0
 19 36  1  0
 21 37  1  0
M  END
>  <Energy>  (344) 
366.644254413395

>  <compound_id>  (344) 
53504

>  <target_id>  (344) 
1

>  <reference_id>  (344) 
98

>  <inspiration_ids>  (344) 
[101, 98]

>  <energy_score>  (344) 
284.8248892763313

>  <distance_score>  (344) 
19.95811565017335

>  <path>  (344) 
/opt/xchem-fragalysis-2/maxwin/BulkDock/SCRATCH/511024/C53504-P98/C53504-P98.minimised.mol

>  <scratch_subdir>  (344) 
/opt/xchem-fragalysis-2/maxwin/BulkDock/SCRATCH/511024/C53504-P98

>  <fragmenstein_runtime>  (344) 
25.054004907608032

>  <fragmenstein_outcome>  (344) 
too moved

>  <fragmenstein_mode>  (344) 
expansion

>  <fragmenstein_error>  (344) 


$$$$
C53505-P101
     RDKit          3D

 38 40  0  0  0  0  0  0  0  0999 V2000
   11.9410  -10.9851   19.1076 O   0  0  0  0  0  0  0  0  0  0  0  0
   11.1888  -11.8805   18.7678 C   0  0  0  0  0  0  0  0  0  0  0  0
   10.3635  -11.9313   17.5089 C   0  0  0  0  0  0  0  0  0  0  0  0
    9.3992  -13.0742   17.8074 C   0  0  0  0  0  0  0  0  0  0  0  0
   10.2033  -14.0108   18.7148 C   0  0  0  0  0  0  0  0  0  0  0  0
    9.3133  -14.9362   19.5862 C   0  0  0  0  0  0  0  0  0  0  0  0
    9.9356  -16.3396   19.9181 C   0  0  0  0  0  0  0  0  0  0  0  0
    9.1207  -17.2568   20.7570 N   0  0  0  0  0  0  0  0  0  0  0  0
    8.2881  -18.3945   20.3947 C   0  0  0  0  0  0  0  0  0  0  0  0
    7.9872  -18.8304   19.3193 O   0  0  0  0  0  0  0  0  0  0  0  0
    7.6982  -19.1670   21.6130 C   0  0  0  0  0  0  0  0  0  0  0  0
    6.7983  -20.2307   21.4629 C   0  0  0  0  0  0  0  0  0  0  0  0
    6.3520  -21.0337   22.4748 N   0  0  0  0  0  0  0  0  0  0  0  0
    6.8708  -20.7485   23.6827 C   0  0  0  0  0  0  0  0  0  0  0  0
    7.7646  -19.6988   23.8719 C   0  0  0  0  0  0  0  0  0  0  0  0
    8.3799  -19.5077   25.1378 N   0  0  0  0  0  0  0  0  0  0  0  0
    9.2807  -18.5091   25.4486 C   0  0  0  0  0  0  0  0  0  0  0  0
    9.6164  -18.6973   26.7668 C   0  0  0  0  0  0  0  0  0  0  0  0
    8.9592  -19.7793   27.2824 N   0  0  0  0  0  0  0  0  0  0  0  0
    8.2381  -20.2511   26.2880 C   0  0  0  0  0  0  0  0  0  0  0  0
    8.1656  -18.8636   22.8515 N   0  0  0  0  0  0  0  0  0  0  0  0
   10.9882  -13.0595   19.4684 N   0  0  0  0  0  0  0  0  0  0  0  0
    9.8243  -11.0032   17.3263 H   0  0  0  0  0  0  0  0  0  0  0  0
   11.0179  -12.1652   16.6639 H   0  0  0  0  0  0  0  0  0  0  0  0
    9.0465  -13.5720   16.8992 H   0  0  0  0  0  0  0  0  0  0  0  0
    8.5225  -12.6821   18.3398 H   0  0  0  0  0  0  0  0  0  0  0  0
   10.8983  -14.6047   18.1085 H   0  0  0  0  0  0  0  0  0  0  0  0
    8.3713  -15.1305   19.0582 H   0  0  0  0  0  0  0  0  0  0  0  0
    9.0603  -14.4313   20.5251 H   0  0  0  0  0  0  0  0  0  0  0  0
   10.8837  -16.1996   20.4473 H   0  0  0  0  0  0  0  0  0  0  0  0
   10.1385  -16.8674   18.9800 H   0  0  0  0  0  0  0  0  0  0  0  0
    9.2257  -17.2312   21.7703 H   0  0  0  0  0  0  0  0  0  0  0  0
    6.4487  -20.5358   20.4963 H   0  0  0  0  0  0  0  0  0  0  0  0
    6.5292  -21.4049   24.4723 H   0  0  0  0  0  0  0  0  0  0  0  0
    9.5862  -17.7681   24.7236 H   0  0  0  0  0  0  0  0  0  0  0  0
   10.2958  -18.1090   27.3705 H   0  0  0  0  0  0  0  0  0  0  0  0
    7.6035  -21.1232   26.3636 H   0  0  0  0  0  0  0  0  0  0  0  0
   11.6366  -13.2886   20.2123 H   0  0  0  0  0  0  0  0  0  0  0  0
  1  2  2  0
  2  3  1  0
  3  4  1  0
  4  5  1  0
  5  6  1  0
  6  7  1  0
  7  8  1  0
  8  9  1  0
  9 10  2  0
  9 11  1  0
 11 12  2  0
 12 13  1  0
 13 14  2  0
 14 15  1  0
 15 16  1  0
 16 17  1  0
 17 18  2  0
 18 19  1  0
 19 20  2  0
 15 21  2  0
  5 22  1  0
 22  2  1  0
 21 11  1  0
 20 16  1  0
  3 23  1  0
  3 24  1  0
  4 25  1  0
  4 26  1  0
  5 27  1  0
  6 28  1  0
  6 29  1  0
  7 30  1  0
  7 31  1  0
  8 32  1  0
 12 33  1  0
 14 34  1  0
 17 35  1  0
 18 36  1  0
 20 37  1  0
 22 38  1  0
M  END
>  <Energy>  (345) 
88.745815140004396

>  <compound_id>  (345) 
53505

>  <target_id>  (345) 
1

>  <reference_id>  (345) 
101

>  <inspiration_ids>  (345) 
[101, 98]

>  <energy_score>  (345) 
-30.9146756184997

>  <distance_score>  (345) 
16.04994732606253

>  <path>  (345) 
/opt/xchem-fragalysis-2/maxwin/BulkDock/SCRATCH/511024/C53505-P101/C53505-P101.minimised.mol

>  <scratch_subdir>  (345) 
/opt/xchem-fragalysis-2/maxwin/BulkDock/SCRATCH/511024/C53505-P101

>  <fragmenstein_runtime>  (345) 
32.95559573173523

>  <fragmenstein_outcome>  (345) 
too moved

>  <fragmenstein_mode>  (345) 
expansion

>  <fragmenstein_error>  (345) 


$$$$
C53505-P98
     RDKit          3D

 38 40  0  0  0  0  0  0  0  0999 V2000
    7.7447  -14.9878   18.4352 O   0  0  0  0  0  0  0  0  0  0  0  0
    6.5700  -14.6728   18.3179 C   0  0  0  0  0  0  0  0  0  0  0  0
    6.1100  -13.3097   17.9471 C   0  0  0  0  0  0  0  0  0  0  0  0
    4.7398  -13.2954   18.6101 C   0  0  0  0  0  0  0  0  0  0  0  0
    4.1141  -14.7565   18.3953 C   0  0  0  0  0  0  0  0  0  0  0  0
    2.2540  -15.1023   19.0143 C   0  0  0  0  0  0  0  0  0  0  0  0
    0.7586  -16.1768   20.1683 C   0  0  0  0  0  0  0  0  0  0  0  0
    0.3302  -17.8300   21.0871 N   0  0  0  0  0  0  0  0  0  0  0  0
    1.3591  -19.3713   21.4030 C   0  0  0  0  0  0  0  0  0  0  0  0
    2.4890  -19.6683   21.0126 O   0  0  0  0  0  0  0  0  0  0  0  0
    0.7707  -20.5830   22.5086 C   0  0  0  0  0  0  0  0  0  0  0  0
    1.6666  -21.2634   23.3138 C   0  0  0  0  0  0  0  0  0  0  0  0
    1.2761  -22.1872   24.2409 N   0  0  0  0  0  0  0  0  0  0  0  0
   -0.0444  -22.4656   24.2764 C   0  0  0  0  0  0  0  0  0  0  0  0
   -0.9634  -21.8349   23.4468 C   0  0  0  0  0  0  0  0  0  0  0  0
   -2.2885  -22.3286   23.3971 N   0  0  0  0  0  0  0  0  0  0  0  0
   -3.1598  -22.1955   22.3414 C   0  0  0  0  0  0  0  0  0  0  0  0
   -4.3066  -22.8566   22.7102 C   0  0  0  0  0  0  0  0  0  0  0  0
   -4.1721  -23.3880   23.9624 N   0  0  0  0  0  0  0  0  0  0  0  0
   -2.9522  -23.0789   24.3396 C   0  0  0  0  0  0  0  0  0  0  0  0
   -0.5898  -20.8279   22.5979 N   0  0  0  0  0  0  0  0  0  0  0  0
    5.4378  -15.4704   18.5365 N   0  0  0  0  0  0  0  0  0  0  0  0
    6.7650  -12.5396   18.3611 H   0  0  0  0  0  0  0  0  0  0  0  0
    6.0525  -13.2232   16.8586 H   0  0  0  0  0  0  0  0  0  0  0  0
    4.8633  -13.0525   19.6719 H   0  0  0  0  0  0  0  0  0  0  0  0
    4.1990  -12.4915   18.1484 H   0  0  0  0  0  0  0  0  0  0  0  0
    4.0387  -14.9768   17.3333 H   0  0  0  0  0  0  0  0  0  0  0  0
    2.2963  -15.7814   18.1830 H   0  0  0  0  0  0  0  0  0  0  0  0
    1.7985  -14.3062   18.3978 H   0  0  0  0  0  0  0  0  0  0  0  0
    0.7287  -15.6022   21.0561 H   0  0  0  0  0  0  0  0  0  0  0  0
   -0.2644  -16.0673   19.8483 H   0  0  0  0  0  0  0  0  0  0  0  0
   -0.5646  -17.8950   21.5527 H   0  0  0  0  0  0  0  0  0  0  0  0
    2.7300  -21.0522   23.2554 H   0  0  0  0  0  0  0  0  0  0  0  0
   -0.3020  -23.2677   24.9584 H   0  0  0  0  0  0  0  0  0  0  0  0
   -2.8819  -21.6825   21.4306 H   0  0  0  0  0  0  0  0  0  0  0  0
   -5.2179  -22.9817   22.1381 H   0  0  0  0  0  0  0  0  0  0  0  0
   -2.5249  -23.3537   25.2941 H   0  0  0  0  0  0  0  0  0  0  0  0
    5.5498  -16.3519   19.0193 H   0  0  0  0  0  0  0  0  0  0  0  0
  1  2  2  0
  2  3  1  0
  3  4  1  0
  4  5  1  0
  5  6  1  0
  6  7  1  0
  7  8  1  0
  8  9  1  0
  9 10  2  0
  9 11  1  0
 11 12  2  0
 12 13  1  0
 13 14  2  0
 14 15  1  0
 15 16  1  0
 16 17  1  0
 17 18  2  0
 18 19  1  0
 19 20  2  0
 15 21  2  0
  5 22  1  0
 22  2  1  0
 21 11  1  0
 20 16  1  0
  3 23  1  0
  3 24  1  0
  4 25  1  0
  4 26  1  0
  5 27  1  0
  6 28  1  0
  6 29  1  0
  7 30  1  0
  7 31  1  0
  8 32  1  0
 12 33  1  0
 14 34  1  0
 17 35  1  0
 18 36  1  0
 20 37  1  0
 22 38  1  0
M  END
>  <Energy>  (346) 
499.51031242484459

>  <compound_id>  (346) 
53505

>  <target_id>  (346) 
1

>  <reference_id>  (346) 
98

>  <inspiration_ids>  (346) 
[101, 98]

>  <energy_score>  (346) 
379.84982166634535

>  <distance_score>  (346) 
14.183183676606232

>  <path>  (346) 
/opt/xchem-fragalysis-2/maxwin/BulkDock/SCRATCH/511024/C53505-P98/C53505-P98.minimised.mol

>  <scratch_subdir>  (346) 
/opt/xchem-fragalysis-2/maxwin/BulkDock/SCRATCH/511024/C53505-P98

>  <fragmenstein_runtime>  (346) 
26.21400737762451

>  <fragmenstein_outcome>  (346) 
too moved

>  <fragmenstein_mode>  (346) 
expansion

>  <fragmenstein_error>  (346) 


$$$$
C53506-P101
     RDKit          3D

 36 38  0  0  0  0  0  0  0  0999 V2000
    5.1714  -18.4828   24.7711 C   0  0  0  0  0  0  0  0  0  0  0  0
    5.4994  -17.1260   25.3126 C   0  0  0  0  0  0  0  0  0  0  0  0
    4.7072  -16.7343   26.3771 N   0  0  0  0  0  0  0  0  0  0  0  0
    5.1446  -15.5518   26.7101 C   0  0  0  0  0  0  0  0  0  0  0  0
    6.1940  -15.1575   25.9257 N   0  0  0  0  0  0  0  0  0  0  0  0
    6.4883  -16.1427   25.0115 C   0  0  0  0  0  0  0  0  0  0  0  0
    7.6909  -16.1641   24.1342 C   0  0  0  0  0  0  0  0  0  0  0  0
    8.0212  -17.3856   23.7315 N   0  0  0  0  0  0  0  0  0  0  0  0
    9.2829  -17.3495   23.2352 C   0  0  0  0  0  0  0  0  0  0  0  0
    9.7451  -16.0676   23.2160 C   0  0  0  0  0  0  0  0  0  0  0  0
    8.6999  -15.2456   23.6463 N   0  0  0  0  0  0  0  0  0  0  0  0
    8.7655  -13.7694   23.2012 C   0  0  0  0  0  0  0  0  0  0  0  0
    8.7035  -13.7224   21.6295 C   0  0  0  0  0  0  0  0  0  0  0  0
    8.2964  -12.4014   20.9545 C   0  0  0  0  0  0  0  0  0  0  0  0
    9.3791  -11.3293   20.9441 C   0  0  0  0  0  0  0  0  0  0  0  0
    9.6765  -10.8521   22.3509 C   0  0  0  0  0  0  0  0  0  0  0  0
   10.4377  -11.8156   23.1085 N   0  0  0  0  0  0  0  0  0  0  0  0
   10.0775  -13.0311   23.6241 C   0  0  0  0  0  0  0  0  0  0  0  0
   10.8721  -13.4811   24.4502 O   0  0  0  0  0  0  0  0  0  0  0  0
    4.1439  -18.4995   24.3964 H   0  0  0  0  0  0  0  0  0  0  0  0
    5.2657  -19.2341   25.5613 H   0  0  0  0  0  0  0  0  0  0  0  0
    5.8376  -18.7659   23.9532 H   0  0  0  0  0  0  0  0  0  0  0  0
    4.7609  -14.9356   27.5116 H   0  0  0  0  0  0  0  0  0  0  0  0
    6.7244  -14.3115   26.0628 H   0  0  0  0  0  0  0  0  0  0  0  0
    9.7931  -18.2478   22.9129 H   0  0  0  0  0  0  0  0  0  0  0  0
   10.6865  -15.6601   22.8721 H   0  0  0  0  0  0  0  0  0  0  0  0
    7.9323  -13.2814   23.7079 H   0  0  0  0  0  0  0  0  0  0  0  0
    9.6743  -14.0300   21.2164 H   0  0  0  0  0  0  0  0  0  0  0  0
    7.9961  -14.4849   21.2820 H   0  0  0  0  0  0  0  0  0  0  0  0
    7.3843  -12.0129   21.4172 H   0  0  0  0  0  0  0  0  0  0  0  0
    8.0410  -12.6240   19.9107 H   0  0  0  0  0  0  0  0  0  0  0  0
   10.2871  -11.7112   20.4624 H   0  0  0  0  0  0  0  0  0  0  0  0
    9.0290  -10.4845   20.3403 H   0  0  0  0  0  0  0  0  0  0  0  0
   10.2749   -9.9359   22.3119 H   0  0  0  0  0  0  0  0  0  0  0  0
    8.7597  -10.6396   22.9096 H   0  0  0  0  0  0  0  0  0  0  0  0
   11.3082  -11.4896   23.5182 H   0  0  0  0  0  0  0  0  0  0  0  0
  1  2  1  0
  2  3  1  0
  3  4  2  0
  4  5  1  0
  5  6  1  0
  6  7  1  0
  7  8  2  0
  8  9  1  0
  9 10  2  0
 10 11  1  0
 11 12  1  0
 12 13  1  0
 13 14  1  0
 14 15  1  0
 15 16  1  0
 16 17  1  0
 17 18  1  0
 18 19  2  0
  6  2  2  0
 11  7  1  0
 18 12  1  0
  1 20  1  0
  1 21  1  0
  1 22  1  0
  4 23  1  0
  5 24  1  0
  9 25  1  0
 10 26  1  0
 12 27  1  0
 13 28  1  0
 13 29  1  0
 14 30  1  0
 14 31  1  0
 15 32  1  0
 15 33  1  0
 16 34  1  0
 16 35  1  0
 17 36  1  0
M  END
>  <Energy>  (347) 
36.33154400432273

>  <compound_id>  (347) 
53506

>  <target_id>  (347) 
1

>  <reference_id>  (347) 
101

>  <inspiration_ids>  (347) 
[101, 98]

>  <energy_score>  (347) 
-12.266312223832642

>  <distance_score>  (347) 
15.051945546523692

>  <path>  (347) 
/opt/xchem-fragalysis-2/maxwin/BulkDock/SCRATCH/511024/C53506-P101/C53506-P101.minimised.mol

>  <scratch_subdir>  (347) 
/opt/xchem-fragalysis-2/maxwin/BulkDock/SCRATCH/511024/C53506-P101

>  <fragmenstein_runtime>  (347) 
16.159801244735718

>  <fragmenstein_outcome>  (347) 
too moved

>  <fragmenstein_mode>  (347) 
expansion

>  <fragmenstein_error>  (347) 


$$$$
C53506-P98
     RDKit          3D

 36 38  0  0  0  0  0  0  0  0999 V2000
    2.5872  -20.3263   26.8207 C   0  0  0  0  0  0  0  0  0  0  0  0
    2.2959  -19.0323   27.4817 C   0  0  0  0  0  0  0  0  0  0  0  0
    0.9866  -18.8534   27.9070 N   0  0  0  0  0  0  0  0  0  0  0  0
    1.0222  -17.7804   28.6493 C   0  0  0  0  0  0  0  0  0  0  0  0
    2.2561  -17.1856   28.6125 N   0  0  0  0  0  0  0  0  0  0  0  0
    3.1282  -17.9581   27.8627 C   0  0  0  0  0  0  0  0  0  0  0  0
    4.5911  -17.7879   27.9698 C   0  0  0  0  0  0  0  0  0  0  0  0
    5.1968  -18.6639   28.7596 N   0  0  0  0  0  0  0  0  0  0  0  0
    6.4237  -18.1661   29.0735 C   0  0  0  0  0  0  0  0  0  0  0  0
    6.6364  -16.9764   28.4343 C   0  0  0  0  0  0  0  0  0  0  0  0
    5.5413  -16.7745   27.6161 N   0  0  0  0  0  0  0  0  0  0  0  0
    5.6217  -15.8335   26.4536 C   0  0  0  0  0  0  0  0  0  0  0  0
    5.8270  -16.5888   25.1380 C   0  0  0  0  0  0  0  0  0  0  0  0
    7.1800  -17.2556   24.8481 C   0  0  0  0  0  0  0  0  0  0  0  0
    8.4337  -16.4097   24.6331 C   0  0  0  0  0  0  0  0  0  0  0  0
    8.7940  -15.5466   25.8223 C   0  0  0  0  0  0  0  0  0  0  0  0
    7.8439  -14.5089   26.1275 N   0  0  0  0  0  0  0  0  0  0  0  0
    6.5448  -14.5610   26.5364 C   0  0  0  0  0  0  0  0  0  0  0  0
    6.1206  -13.4651   26.9241 O   0  0  0  0  0  0  0  0  0  0  0  0
    2.6092  -21.1333   27.5592 H   0  0  0  0  0  0  0  0  0  0  0  0
    1.8218  -20.5576   26.0734 H   0  0  0  0  0  0  0  0  0  0  0  0
    3.5564  -20.2963   26.3133 H   0  0  0  0  0  0  0  0  0  0  0  0
    0.2016  -17.3740   29.2257 H   0  0  0  0  0  0  0  0  0  0  0  0
    2.5327  -16.3966   29.1765 H   0  0  0  0  0  0  0  0  0  0  0  0
    7.0855  -18.6863   29.7540 H   0  0  0  0  0  0  0  0  0  0  0  0
    7.4823  -16.3060   28.4558 H   0  0  0  0  0  0  0  0  0  0  0  0
    4.6074  -15.4161   26.4312 H   0  0  0  0  0  0  0  0  0  0  0  0
    5.5459  -15.9158   24.3410 H   0  0  0  0  0  0  0  0  0  0  0  0
    5.0760  -17.3905   25.0900 H   0  0  0  0  0  0  0  0  0  0  0  0
    7.3856  -17.9739   25.6522 H   0  0  0  0  0  0  0  0  0  0  0  0
    7.0524  -17.8690   23.9462 H   0  0  0  0  0  0  0  0  0  0  0  0
    8.3834  -15.8366   23.7078 H   0  0  0  0  0  0  0  0  0  0  0  0
    9.2670  -17.1077   24.4727 H   0  0  0  0  0  0  0  0  0  0  0  0
    9.7513  -15.0494   25.6307 H   0  0  0  0  0  0  0  0  0  0  0  0
    8.9240  -16.1642   26.7153 H   0  0  0  0  0  0  0  0  0  0  0  0
    8.2275  -13.5812   26.2798 H   0  0  0  0  0  0  0  0  0  0  0  0
  1  2  1  0
  2  3  1  0
  3  4  2  0
  4  5  1  0
  5  6  1  0
  6  7  1  0
  7  8  2  0
  8  9  1  0
  9 10  2  0
 10 11  1  0
 11 12  1  0
 12 13  1  0
 13 14  1  0
 14 15  1  0
 15 16  1  0
 16 17  1  0
 17 18  1  0
 18 19  2  0
  6  2  2  0
 11  7  1  0
 18 12  1  0
  1 20  1  0
  1 21  1  0
  1 22  1  0
  4 23  1  0
  5 24  1  0
  9 25  1  0
 10 26  1  0
 12 27  1  0
 13 28  1  0
 13 29  1  0
 14 30  1  0
 14 31  1  0
 15 32  1  0
 15 33  1  0
 16 34  1  0
 16 35  1  0
 17 36  1  0
M  END
>  <Energy>  (348) 
32.33038873423056

>  <compound_id>  (348) 
53506

>  <target_id>  (348) 
1

>  <reference_id>  (348) 
98

>  <inspiration_ids>  (348) 
[101, 98]

>  <energy_score>  (348) 
-16.267467493926347

>  <distance_score>  (348) 
16.400064182271354

>  <path>  (348) 
/opt/xchem-fragalysis-2/maxwin/BulkDock/SCRATCH/511024/C53506-P98/C53506-P98.minimised.mol

>  <scratch_subdir>  (348) 
/opt/xchem-fragalysis-2/maxwin/BulkDock/SCRATCH/511024/C53506-P98

>  <fragmenstein_runtime>  (348) 
14.42115831375122

>  <fragmenstein_outcome>  (348) 
too moved

>  <fragmenstein_mode>  (348) 
expansion

>  <fragmenstein_error>  (348) 


$$$$
C53509-P101
     RDKit          3D

 39 40  0  0  0  0  0  0  0  0999 V2000
    5.3444  -14.5935   27.4964 C   0  0  0  0  0  0  0  0  0  0  0  0
    5.9658  -13.8241   28.5995 N   0  0  0  0  0  0  0  0  0  0  0  0
    4.9512  -14.7224   29.4809 C   0  0  0  0  0  0  0  0  0  0  0  0
    3.5432  -15.3741   29.1926 C   0  0  0  0  0  0  0  0  0  0  0  0
    3.1996  -16.7158   28.9961 C   0  0  0  0  0  0  0  0  0  0  0  0
    1.8396  -16.9156   28.9203 N   0  0  0  0  0  0  0  0  0  0  0  0
    1.3226  -15.7215   29.0758 C   0  0  0  0  0  0  0  0  0  0  0  0
    2.2990  -14.7674   29.2575 N   0  0  0  0  0  0  0  0  0  0  0  0
    2.0169  -13.3737   29.4994 C   0  0  0  0  0  0  0  0  0  0  0  0
    5.9515  -12.3769   28.2900 C   0  0  0  0  0  0  0  0  0  0  0  0
    5.1275  -11.5309   28.5465 O   0  0  0  0  0  0  0  0  0  0  0  0
    7.3337  -11.8778   27.5859 C   0  0  0  0  0  0  0  0  0  0  0  0
    7.5945  -12.3976   26.1487 C   0  0  0  0  0  0  0  0  0  0  0  0
    8.2852  -11.5382   25.0495 C   0  0  0  0  0  0  0  0  0  0  0  0
    9.6275  -10.8518   25.3459 C   0  0  0  0  0  0  0  0  0  0  0  0
    9.4927   -9.6113   26.2290 C   0  0  0  0  0  0  0  0  0  0  0  0
    8.9076  -10.0034   27.4966 N   0  0  0  0  0  0  0  0  0  0  0  0
    7.5517  -10.3551   27.4302 C   0  0  0  0  0  0  0  0  0  0  0  0
    6.7331   -9.5601   26.9778 O   0  0  0  0  0  0  0  0  0  0  0  0
    4.3152  -14.3231   27.2624 H   0  0  0  0  0  0  0  0  0  0  0  0
    5.8794  -14.3131   26.5942 H   0  0  0  0  0  0  0  0  0  0  0  0
    5.5434  -15.6748   27.5494 H   0  0  0  0  0  0  0  0  0  0  0  0
    4.7917  -14.0805   30.3594 H   0  0  0  0  0  0  0  0  0  0  0  0
    5.5955  -15.5398   29.8438 H   0  0  0  0  0  0  0  0  0  0  0  0
    3.8805  -17.5553   28.9240 H   0  0  0  0  0  0  0  0  0  0  0  0
    0.2677  -15.4795   29.0670 H   0  0  0  0  0  0  0  0  0  0  0  0
    1.4968  -13.2926   30.4574 H   0  0  0  0  0  0  0  0  0  0  0  0
    2.9445  -12.8027   29.5360 H   0  0  0  0  0  0  0  0  0  0  0  0
    1.3816  -13.0031   28.6911 H   0  0  0  0  0  0  0  0  0  0  0  0
    8.1266  -12.2566   28.2456 H   0  0  0  0  0  0  0  0  0  0  0  0
    8.1347  -13.3487   26.2321 H   0  0  0  0  0  0  0  0  0  0  0  0
    6.6122  -12.6175   25.7273 H   0  0  0  0  0  0  0  0  0  0  0  0
    7.5673  -10.7918   24.6880 H   0  0  0  0  0  0  0  0  0  0  0  0
    8.4578  -12.2271   24.2152 H   0  0  0  0  0  0  0  0  0  0  0  0
   10.1006  -10.5503   24.4049 H   0  0  0  0  0  0  0  0  0  0  0  0
   10.2998  -11.5782   25.8191 H   0  0  0  0  0  0  0  0  0  0  0  0
   10.4762   -9.1795   26.4370 H   0  0  0  0  0  0  0  0  0  0  0  0
    8.8676   -8.8519   25.7470 H   0  0  0  0  0  0  0  0  0  0  0  0
    9.4954  -10.6259   28.0352 H   0  0  0  0  0  0  0  0  0  0  0  0
  1  2  1  0
  2  3  1  0
  3  4  1  0
  4  5  2  0
  5  6  1  0
  6  7  2  0
  7  8  1  0
  8  9  1  0
  2 10  1  0
 10 11  2  0
 10 12  1  0
 12 13  1  0
 13 14  1  0
 14 15  1  0
 15 16  1  0
 16 17  1  0
 17 18  1  0
 18 19  2  0
  8  4  1  0
 18 12  1  0
  1 20  1  0
  1 21  1  0
  1 22  1  0
  3 23  1  0
  3 24  1  0
  5 25  1  0
  7 26  1  0
  9 27  1  0
  9 28  1  0
  9 29  1  0
 12 30  1  0
 13 31  1  0
 13 32  1  0
 14 33  1  0
 14 34  1  0
 15 35  1  0
 15 36  1  0
 16 37  1  0
 16 38  1  0
 17 39  1  0
M  END
>  <Energy>  (349) 
91.58653716560859

>  <compound_id>  (349) 
53509

>  <target_id>  (349) 
1

>  <reference_id>  (349) 
101

>  <inspiration_ids>  (349) 
[101, 98]

>  <energy_score>  (349) 
73.18660126407121

>  <distance_score>  (349) 
15.522635447019404

>  <path>  (349) 
/opt/xchem-fragalysis-2/maxwin/BulkDock/SCRATCH/511024/C53509-P101/C53509-P101.minimised.mol

>  <scratch_subdir>  (349) 
/opt/xchem-fragalysis-2/maxwin/BulkDock/SCRATCH/511024/C53509-P101

>  <fragmenstein_runtime>  (349) 
31.167194604873657

>  <fragmenstein_outcome>  (349) 
too moved

>  <fragmenstein_mode>  (349) 
expansion

>  <fragmenstein_error>  (349) 


$$$$
C53509-P98
     RDKit          3D

 39 40  0  0  0  0  0  0  0  0999 V2000
    4.7899  -14.6162   25.4006 C   0  0  0  0  0  0  0  0  0  0  0  0
    4.4923  -15.3535   23.9538 N   0  0  0  0  0  0  0  0  0  0  0  0
    4.4076  -16.7825   25.0503 C   0  0  0  0  0  0  0  0  0  0  0  0
    3.7761  -18.2085   24.8918 C   0  0  0  0  0  0  0  0  0  0  0  0
    2.8816  -18.8254   25.7846 C   0  0  0  0  0  0  0  0  0  0  0  0
    2.4363  -20.0433   25.3471 N   0  0  0  0  0  0  0  0  0  0  0  0
    3.1618  -20.2759   24.2818 C   0  0  0  0  0  0  0  0  0  0  0  0
    4.0788  -19.2678   24.0580 N   0  0  0  0  0  0  0  0  0  0  0  0
    5.2469  -19.4490   23.2302 C   0  0  0  0  0  0  0  0  0  0  0  0
    3.1954  -14.4441   22.9989 C   0  0  0  0  0  0  0  0  0  0  0  0
    2.0515  -14.7425   23.1470 O   0  0  0  0  0  0  0  0  0  0  0  0
    3.7099  -12.9868   21.4777 C   0  0  0  0  0  0  0  0  0  0  0  0
    5.2513  -11.8675   20.8773 C   0  0  0  0  0  0  0  0  0  0  0  0
    5.8438  -10.9407   19.3613 C   0  0  0  0  0  0  0  0  0  0  0  0
    4.9650   -9.5447   18.1828 C   0  0  0  0  0  0  0  0  0  0  0  0
    3.6650  -10.7605   17.2648 C   0  0  0  0  0  0  0  0  0  0  0  0
    3.5621  -12.3916   18.2450 N   0  0  0  0  0  0  0  0  0  0  0  0
    4.1979  -13.0979   19.6090 C   0  0  0  0  0  0  0  0  0  0  0  0
    5.2877  -13.6747   19.3604 O   0  0  0  0  0  0  0  0  0  0  0  0
    5.1601  -13.6001   25.5464 H   0  0  0  0  0  0  0  0  0  0  0  0
    5.5176  -15.1794   26.0114 H   0  0  0  0  0  0  0  0  0  0  0  0
    3.8699  -14.5521   25.9575 H   0  0  0  0  0  0  0  0  0  0  0  0
    5.4845  -17.0271   25.0437 H   0  0  0  0  0  0  0  0  0  0  0  0
    4.2054  -16.5357   26.1099 H   0  0  0  0  0  0  0  0  0  0  0  0
    2.5027  -18.4036   26.7074 H   0  0  0  0  0  0  0  0  0  0  0  0
    3.1231  -21.1676   23.6693 H   0  0  0  0  0  0  0  0  0  0  0  0
    5.9804  -18.6707   23.4427 H   0  0  0  0  0  0  0  0  0  0  0  0
    5.6916  -20.4189   23.4731 H   0  0  0  0  0  0  0  0  0  0  0  0
    4.9523  -19.4388   22.1811 H   0  0  0  0  0  0  0  0  0  0  0  0
    3.4277  -12.1492   22.1115 H   0  0  0  0  0  0  0  0  0  0  0  0
    5.3087  -11.1169   21.6608 H   0  0  0  0  0  0  0  0  0  0  0  0
    6.1461  -12.5119   20.9499 H   0  0  0  0  0  0  0  0  0  0  0  0
    5.8443  -11.8230   18.7913 H   0  0  0  0  0  0  0  0  0  0  0  0
    6.8980  -10.6455   19.4588 H   0  0  0  0  0  0  0  0  0  0  0  0
    5.6930   -8.9421   17.6157 H   0  0  0  0  0  0  0  0  0  0  0  0
    4.3292   -8.7748   18.5742 H   0  0  0  0  0  0  0  0  0  0  0  0
    3.7014  -10.9889   16.1905 H   0  0  0  0  0  0  0  0  0  0  0  0
    2.7319  -10.1993   17.4049 H   0  0  0  0  0  0  0  0  0  0  0  0
    3.5172  -13.1277   17.5799 H   0  0  0  0  0  0  0  0  0  0  0  0
  1  2  1  0
  2  3  1  0
  3  4  1  0
  4  5  2  0
  5  6  1  0
  6  7  2  0
  7  8  1  0
  8  9  1  0
  2 10  1  0
 10 11  2  0
 10 12  1  0
 12 13  1  0
 13 14  1  0
 14 15  1  0
 15 16  1  0
 16 17  1  0
 17 18  1  0
 18 19  2  0
  8  4  1  0
 18 12  1  0
  1 20  1  0
  1 21  1  0
  1 22  1  0
  3 23  1  0
  3 24  1  0
  5 25  1  0
  7 26  1  0
  9 27  1  0
  9 28  1  0
  9 29  1  0
 12 30  1  0
 13 31  1  0
 13 32  1  0
 14 33  1  0
 14 34  1  0
 15 35  1  0
 15 36  1  0
 16 37  1  0
 16 38  1  0
 17 39  1  0
M  END
>  <Energy>  (350) 
754.38906142576786

>  <compound_id>  (350) 
53509

>  <target_id>  (350) 
1

>  <reference_id>  (350) 
98

>  <inspiration_ids>  (350) 
[101, 98]

>  <energy_score>  (350) 
735.9891255242392

>  <distance_score>  (350) 
14.550794487030158

>  <path>  (350) 
/opt/xchem-fragalysis-2/maxwin/BulkDock/SCRATCH/511024/C53509-P98/C53509-P98.minimised.mol

>  <scratch_subdir>  (350) 
/opt/xchem-fragalysis-2/maxwin/BulkDock/SCRATCH/511024/C53509-P98

>  <fragmenstein_runtime>  (350) 
14.524539709091187

>  <fragmenstein_outcome>  (350) 
too moved

>  <fragmenstein_mode>  (350) 
expansion

>  <fragmenstein_error>  (350) 


$$$$
C53511-P101
     RDKit          3D

 41 42  0  0  0  0  0  0  0  0999 V2000
    9.5690  -11.4054   17.8688 C   0  0  0  0  0  0  0  0  0  0  0  0
    8.0312  -10.7105   17.6025 C   0  0  0  0  0  0  0  0  0  0  0  0
    6.1327  -11.2586   18.4729 C   0  0  0  0  0  0  0  0  0  0  0  0
    4.2968  -12.0654   17.9240 C   0  0  0  0  0  0  0  0  0  0  0  0
    3.5727  -11.5539   17.0401 O   0  0  0  0  0  0  0  0  0  0  0  0
    3.9691  -13.3950   18.6168 O   0  0  0  0  0  0  0  0  0  0  0  0
    3.0325  -14.7973   18.2581 C   0  0  0  0  0  0  0  0  0  0  0  0
    1.6336  -15.6774   17.5941 C   0  0  0  0  0  0  0  0  0  0  0  0
    0.5377  -15.0195   16.7277 C   0  0  0  0  0  0  0  0  0  0  0  0
   -0.8659  -15.6569   16.8975 C   0  0  0  0  0  0  0  0  0  0  0  0
   -0.9719  -17.1122   16.4588 C   0  0  0  0  0  0  0  0  0  0  0  0
   -0.1970  -18.0662   17.3551 C   0  0  0  0  0  0  0  0  0  0  0  0
    1.2595  -18.1337   16.9768 C   0  0  0  0  0  0  0  0  0  0  0  0
    1.7942  -19.1840   16.6246 O   0  0  0  0  0  0  0  0  0  0  0  0
    2.0093  -16.9885   17.0192 N   0  0  0  0  0  0  0  0  0  0  0  0
    8.7561  -10.5040   15.9492 N   0  0  0  0  0  0  0  0  0  0  0  0
    8.3440  -10.7998   14.6253 C   0  0  0  0  0  0  0  0  0  0  0  0
    9.4042  -11.2603   13.8930 C   0  0  0  0  0  0  0  0  0  0  0  0
   10.5267  -11.0701   14.5741 N   0  0  0  0  0  0  0  0  0  0  0  0
   10.1483  -10.4491   15.6651 C   0  0  0  0  0  0  0  0  0  0  0  0
    9.8645  -12.1521   17.1061 H   0  0  0  0  0  0  0  0  0  0  0  0
   10.4221  -10.7459   17.9576 H   0  0  0  0  0  0  0  0  0  0  0  0
    9.6858  -11.8857   18.8025 H   0  0  0  0  0  0  0  0  0  0  0  0
    8.3947   -9.8620   18.1707 H   0  0  0  0  0  0  0  0  0  0  0  0
    6.3028  -11.5737   19.5243 H   0  0  0  0  0  0  0  0  0  0  0  0
    5.7175  -10.3026   18.5722 H   0  0  0  0  0  0  0  0  0  0  0  0
    2.3165  -14.0364   18.0476 H   0  0  0  0  0  0  0  0  0  0  0  0
    3.7997  -15.2396   17.6334 H   0  0  0  0  0  0  0  0  0  0  0  0
    1.0473  -15.9883   18.4506 H   0  0  0  0  0  0  0  0  0  0  0  0
    0.4144  -13.9750   17.0041 H   0  0  0  0  0  0  0  0  0  0  0  0
    0.8246  -15.0451   15.6699 H   0  0  0  0  0  0  0  0  0  0  0  0
   -1.1977  -15.5586   17.9375 H   0  0  0  0  0  0  0  0  0  0  0  0
   -1.5698  -15.0677   16.2962 H   0  0  0  0  0  0  0  0  0  0  0  0
   -2.0315  -17.3945   16.4936 H   0  0  0  0  0  0  0  0  0  0  0  0
   -0.6519  -17.2116   15.4145 H   0  0  0  0  0  0  0  0  0  0  0  0
   -0.6064  -19.0762   17.2276 H   0  0  0  0  0  0  0  0  0  0  0  0
   -0.2978  -17.8191   18.4168 H   0  0  0  0  0  0  0  0  0  0  0  0
    2.9797  -17.1387   16.7717 H   0  0  0  0  0  0  0  0  0  0  0  0
    7.3400  -10.8434   14.2490 H   0  0  0  0  0  0  0  0  0  0  0  0
    9.3919  -11.6840   12.8976 H   0  0  0  0  0  0  0  0  0  0  0  0
   10.9108  -10.0868   16.3256 H   0  0  0  0  0  0  0  0  0  0  0  0
  1  2  1  0
  2  3  1  0
  3  4  1  0
  4  5  2  0
  4  6  1  0
  6  7  1  0
  7  8  1  0
  8  9  1  0
  9 10  1  0
 10 11  1  0
 11 12  1  0
 12 13  1  0
 13 14  2  0
 13 15  1  0
  2 16  1  0
 16 17  1  0
 17 18  2  0
 18 19  1  0
 19 20  2  0
 15  8  1  0
 20 16  1  0
  1 21  1  0
  1 22  1  0
  1 23  1  0
  2 24  1  0
  3 25  1  0
  3 26  1  0
  7 27  1  0
  7 28  1  0
  8 29  1  0
  9 30  1  0
  9 31  1  0
 10 32  1  0
 10 33  1  0
 11 34  1  0
 11 35  1  0
 12 36  1  0
 12 37  1  0
 15 38  1  0
 17 39  1  0
 18 40  1  0
 20 41  1  0
M  END
>  <Energy>  (351) 
468.54139211157656

>  <compound_id>  (351) 
53511

>  <target_id>  (351) 
1

>  <reference_id>  (351) 
101

>  <inspiration_ids>  (351) 
[101, 98]

>  <energy_score>  (351) 
430.95321226269334

>  <distance_score>  (351) 
14.967331277597726

>  <path>  (351) 
/opt/xchem-fragalysis-2/maxwin/BulkDock/SCRATCH/511024/C53511-P101/C53511-P101.minimised.mol

>  <scratch_subdir>  (351) 
/opt/xchem-fragalysis-2/maxwin/BulkDock/SCRATCH/511024/C53511-P101

>  <fragmenstein_runtime>  (351) 
20.071924448013306

>  <fragmenstein_outcome>  (351) 
too moved

>  <fragmenstein_mode>  (351) 
expansion

>  <fragmenstein_error>  (351) 


$$$$
C53511-P98
     RDKit          3D

 41 42  0  0  0  0  0  0  0  0999 V2000
    3.1752  -11.5106   16.6088 C   0  0  0  0  0  0  0  0  0  0  0  0
    3.4753  -12.7848   18.0567 C   0  0  0  0  0  0  0  0  0  0  0  0
    2.3428  -14.3133   18.0960 C   0  0  0  0  0  0  0  0  0  0  0  0
    1.5453  -15.4071   17.1766 C   0  0  0  0  0  0  0  0  0  0  0  0
    1.7615  -15.7733   16.0324 O   0  0  0  0  0  0  0  0  0  0  0  0
    0.5124  -15.9588   17.9495 O   0  0  0  0  0  0  0  0  0  0  0  0
   -0.2617  -17.1473   17.5730 C   0  0  0  0  0  0  0  0  0  0  0  0
   -1.1194  -17.7150   18.8049 C   0  0  0  0  0  0  0  0  0  0  0  0
   -1.4937  -19.2053   18.6160 C   0  0  0  0  0  0  0  0  0  0  0  0
   -2.5243  -19.7985   19.5980 C   0  0  0  0  0  0  0  0  0  0  0  0
   -2.3456  -19.3609   21.0474 C   0  0  0  0  0  0  0  0  0  0  0  0
   -2.5935  -17.8802   21.3362 C   0  0  0  0  0  0  0  0  0  0  0  0
   -3.1393  -17.0734   20.1809 C   0  0  0  0  0  0  0  0  0  0  0  0
   -4.2274  -16.5057   20.2222 O   0  0  0  0  0  0  0  0  0  0  0  0
   -2.3423  -16.9506   19.0694 N   0  0  0  0  0  0  0  0  0  0  0  0
    4.3398  -12.8359   19.2818 N   0  0  0  0  0  0  0  0  0  0  0  0
    5.6401  -12.9269   19.3843 C   0  0  0  0  0  0  0  0  0  0  0  0
    5.9987  -11.7870   19.9763 C   0  0  0  0  0  0  0  0  0  0  0  0
    5.1754  -11.7535   20.9719 N   0  0  0  0  0  0  0  0  0  0  0  0
    4.2694  -12.6694   20.6270 C   0  0  0  0  0  0  0  0  0  0  0  0
    2.2544  -11.5973   15.9949 H   0  0  0  0  0  0  0  0  0  0  0  0
    3.7389  -11.7155   15.6724 H   0  0  0  0  0  0  0  0  0  0  0  0
    3.1281  -10.4678   16.9693 H   0  0  0  0  0  0  0  0  0  0  0  0
    2.9125  -11.9833   18.3753 H   0  0  0  0  0  0  0  0  0  0  0  0
    2.5886  -14.8202   19.0006 H   0  0  0  0  0  0  0  0  0  0  0  0
    1.4168  -13.7725   18.1562 H   0  0  0  0  0  0  0  0  0  0  0  0
   -0.9226  -16.8737   16.7445 H   0  0  0  0  0  0  0  0  0  0  0  0
    0.4519  -17.9098   17.2443 H   0  0  0  0  0  0  0  0  0  0  0  0
   -0.4965  -17.6170   19.7000 H   0  0  0  0  0  0  0  0  0  0  0  0
   -0.5697  -19.7946   18.6788 H   0  0  0  0  0  0  0  0  0  0  0  0
   -1.8803  -19.3544   17.5995 H   0  0  0  0  0  0  0  0  0  0  0  0
   -3.5385  -19.5532   19.2586 H   0  0  0  0  0  0  0  0  0  0  0  0
   -2.4529  -20.8921   19.5447 H   0  0  0  0  0  0  0  0  0  0  0  0
   -1.3408  -19.6323   21.3946 H   0  0  0  0  0  0  0  0  0  0  0  0
   -3.0373  -19.9481   21.6652 H   0  0  0  0  0  0  0  0  0  0  0  0
   -3.2913  -17.7860   22.1772 H   0  0  0  0  0  0  0  0  0  0  0  0
   -1.6668  -17.3994   21.6664 H   0  0  0  0  0  0  0  0  0  0  0  0
   -2.7855  -16.4466   18.3100 H   0  0  0  0  0  0  0  0  0  0  0  0
    5.8375  -13.9277   19.6260 H   0  0  0  0  0  0  0  0  0  0  0  0
    6.7067  -11.0422   19.6797 H   0  0  0  0  0  0  0  0  0  0  0  0
    3.4851  -13.0497   21.2551 H   0  0  0  0  0  0  0  0  0  0  0  0
  1  2  1  0
  2  3  1  0
  3  4  1  0
  4  5  2  0
  4  6  1  0
  6  7  1  0
  7  8  1  0
  8  9  1  0
  9 10  1  0
 10 11  1  0
 11 12  1  0
 12 13  1  0
 13 14  2  0
 13 15  1  0
  2 16  1  0
 16 17  1  0
 17 18  2  0
 18 19  1  0
 19 20  2  0
 15  8  1  0
 20 16  1  0
  1 21  1  0
  1 22  1  0
  1 23  1  0
  2 24  1  0
  3 25  1  0
  3 26  1  0
  7 27  1  0
  7 28  1  0
  8 29  1  0
  9 30  1  0
  9 31  1  0
 10 32  1  0
 10 33  1  0
 11 34  1  0
 11 35  1  0
 12 36  1  0
 12 37  1  0
 15 38  1  0
 17 39  1  0
 18 40  1  0
 20 41  1  0
M  END
>  <Energy>  (352) 
234.34482775460734

>  <compound_id>  (352) 
53511

>  <target_id>  (352) 
1

>  <reference_id>  (352) 
98

>  <inspiration_ids>  (352) 
[101, 98]

>  <energy_score>  (352) 
196.7566479057266

>  <distance_score>  (352) 
14.734097733342953

>  <path>  (352) 
/opt/xchem-fragalysis-2/maxwin/BulkDock/SCRATCH/511024/C53511-P98/C53511-P98.minimised.mol

>  <scratch_subdir>  (352) 
/opt/xchem-fragalysis-2/maxwin/BulkDock/SCRATCH/511024/C53511-P98

>  <fragmenstein_runtime>  (352) 
24.94450068473816

>  <fragmenstein_outcome>  (352) 
too moved

>  <fragmenstein_mode>  (352) 
expansion

>  <fragmenstein_error>  (352) 


$$$$
C53512-P101
     RDKit          3D

 47 48  0  0  0  0  0  0  0  0999 V2000
   -3.4771  -21.8040   23.1953 C   0  0  0  0  0  0  0  0  0  0  0  0
   -3.9146  -20.7277   24.1798 C   0  0  0  0  0  0  0  0  0  0  0  0
   -4.0649  -21.1175   25.5002 N   0  0  0  0  0  0  0  0  0  0  0  0
   -3.4095  -20.1887   26.2134 C   0  0  0  0  0  0  0  0  0  0  0  0
   -3.3317  -19.1120   25.4723 N   0  0  0  0  0  0  0  0  0  0  0  0
   -4.4281  -19.0185   23.9427 C   0  0  0  0  0  0  0  0  0  0  0  0
   -4.2934  -17.2660   22.3076 C   0  0  0  0  0  0  0  0  0  0  0  0
   -2.7071  -17.4703   20.7567 C   0  0  0  0  0  0  0  0  0  0  0  0
   -2.7521  -18.4463   20.0212 O   0  0  0  0  0  0  0  0  0  0  0  0
   -1.4075  -16.4060   20.6914 N   0  0  0  0  0  0  0  0  0  0  0  0
   -1.7128  -15.3706   19.7685 C   0  0  0  0  0  0  0  0  0  0  0  0
    0.3254  -16.4480   19.7019 C   0  0  0  0  0  0  0  0  0  0  0  0
    1.9064  -15.3697   18.7351 C   0  0  0  0  0  0  0  0  0  0  0  0
    2.9693  -14.9217   17.4543 N   0  0  0  0  0  0  0  0  0  0  0  0
    3.4047  -16.3112   17.5969 C   0  0  0  0  0  0  0  0  0  0  0  0
    4.1405  -14.0270   17.4532 C   0  0  0  0  0  0  0  0  0  0  0  0
    4.6949  -13.4639   18.3641 O   0  0  0  0  0  0  0  0  0  0  0  0
    4.8302  -13.8145   16.0533 C   0  0  0  0  0  0  0  0  0  0  0  0
    3.9882  -13.0276   15.0609 C   0  0  0  0  0  0  0  0  0  0  0  0
    4.0044  -11.2348   15.3642 S   0  0  0  0  0  0  0  0  0  0  0  0
    5.8023  -10.9476   15.3877 C   0  0  0  0  0  0  0  0  0  0  0  0
    6.5862  -11.9270   16.2375 C   0  0  0  0  0  0  0  0  0  0  0  0
    7.6340  -11.5986   16.8061 O   0  0  0  0  0  0  0  0  0  0  0  0
    6.2150  -13.2559   16.2339 N   0  0  0  0  0  0  0  0  0  0  0  0
   -4.3342  -22.1967   22.6396 H   0  0  0  0  0  0  0  0  0  0  0  0
   -3.0194  -22.6449   23.7289 H   0  0  0  0  0  0  0  0  0  0  0  0
   -2.7220  -21.4229   22.5033 H   0  0  0  0  0  0  0  0  0  0  0  0
   -4.1285  -22.0814   25.7910 H   0  0  0  0  0  0  0  0  0  0  0  0
   -2.9943  -20.3337   27.1999 H   0  0  0  0  0  0  0  0  0  0  0  0
   -5.3421  -17.4429   21.7268 H   0  0  0  0  0  0  0  0  0  0  0  0
   -4.1881  -16.1889   22.6361 H   0  0  0  0  0  0  0  0  0  0  0  0
   -2.0700  -14.5461   20.3822 H   0  0  0  0  0  0  0  0  0  0  0  0
   -1.6130  -15.1879   18.6989 H   0  0  0  0  0  0  0  0  0  0  0  0
   -2.6728  -15.8144   19.5339 H   0  0  0  0  0  0  0  0  0  0  0  0
   -0.1148  -15.6417   19.3628 H   0  0  0  0  0  0  0  0  0  0  0  0
    0.7609  -16.3730   20.6647 H   0  0  0  0  0  0  0  0  0  0  0  0
    1.3729  -14.5409   18.1568 H   0  0  0  0  0  0  0  0  0  0  0  0
    2.4107  -14.8951   19.5838 H   0  0  0  0  0  0  0  0  0  0  0  0
    4.0187  -16.4846   16.6988 H   0  0  0  0  0  0  0  0  0  0  0  0
    2.6745  -17.1172   17.4668 H   0  0  0  0  0  0  0  0  0  0  0  0
    4.1639  -16.4260   18.3723 H   0  0  0  0  0  0  0  0  0  0  0  0
    5.0009  -14.8170   15.6453 H   0  0  0  0  0  0  0  0  0  0  0  0
    4.3684  -13.1838   14.0453 H   0  0  0  0  0  0  0  0  0  0  0  0
    2.9476  -13.3662   15.0731 H   0  0  0  0  0  0  0  0  0  0  0  0
    5.9612   -9.9395   15.7765 H   0  0  0  0  0  0  0  0  0  0  0  0
    6.1857  -10.9910   14.3640 H   0  0  0  0  0  0  0  0  0  0  0  0
    6.7561  -13.7399   16.9413 H   0  0  0  0  0  0  0  0  0  0  0  0
  1  2  1  0
  2  3  1  0
  3  4  1  0
  4  5  2  0
  5  6  1  0
  6  7  1  0
  7  8  1  0
  8  9  2  0
  8 10  1  0
 10 11  1  0
 10 12  1  0
 12 13  1  0
 13 14  1  0
 14 15  1  0
 14 16  1  0
 16 17  2  0
 16 18  1  0
 18 19  1  0
 19 20  1  0
 20 21  1  0
 21 22  1  0
 22 23  2  0
 22 24  1  0
  6  2  2  0
 24 18  1  0
  1 25  1  0
  1 26  1  0
  1 27  1  0
  3 28  1  0
  4 29  1  0
  7 30  1  0
  7 31  1  0
 11 32  1  0
 11 33  1  0
 11 34  1  0
 12 35  1  0
 12 36  1  0
 13 37  1  0
 13 38  1  0
 15 39  1  0
 15 40  1  0
 15 41  1  0
 18 42  1  0
 19 43  1  0
 19 44  1  0
 21 45  1  0
 21 46  1  0
 24 47  1  0
M  END
>  <Energy>  (353) 
1235.1404108675736

>  <compound_id>  (353) 
53512

>  <target_id>  (353) 
1

>  <reference_id>  (353) 
101

>  <inspiration_ids>  (353) 
[101, 98]

>  <energy_score>  (353) 
1091.104300841252

>  <distance_score>  (353) 
12.850647046439464

>  <path>  (353) 
/opt/xchem-fragalysis-2/maxwin/BulkDock/SCRATCH/511024/C53512-P101/C53512-P101.minimised.mol

>  <scratch_subdir>  (353) 
/opt/xchem-fragalysis-2/maxwin/BulkDock/SCRATCH/511024/C53512-P101

>  <fragmenstein_runtime>  (353) 
52.17690134048462

>  <fragmenstein_outcome>  (353) 
too moved

>  <fragmenstein_mode>  (353) 
expansion

>  <fragmenstein_error>  (353) 


$$$$
C53512-P98
     RDKit          3D

 47 48  0  0  0  0  0  0  0  0999 V2000
   -3.2581  -13.5512   29.2515 C   0  0  0  0  0  0  0  0  0  0  0  0
   -2.6017  -14.6962   28.4944 C   0  0  0  0  0  0  0  0  0  0  0  0
   -2.6261  -15.8670   29.2586 N   0  0  0  0  0  0  0  0  0  0  0  0
   -2.5756  -16.9500   28.4703 C   0  0  0  0  0  0  0  0  0  0  0  0
   -2.3173  -16.5638   27.2602 N   0  0  0  0  0  0  0  0  0  0  0  0
   -2.0750  -15.0119   27.1430 C   0  0  0  0  0  0  0  0  0  0  0  0
   -1.6805  -14.2066   25.3410 C   0  0  0  0  0  0  0  0  0  0  0  0
   -0.1554  -14.0784   23.9085 C   0  0  0  0  0  0  0  0  0  0  0  0
   -0.5204  -14.3591   22.7756 O   0  0  0  0  0  0  0  0  0  0  0  0
    1.6201  -13.4522   24.1349 N   0  0  0  0  0  0  0  0  0  0  0  0
    1.6874  -12.0816   24.0400 C   0  0  0  0  0  0  0  0  0  0  0  0
    3.0510  -13.2861   22.9500 C   0  0  0  0  0  0  0  0  0  0  0  0
    3.9109  -12.9282   21.1773 C   0  0  0  0  0  0  0  0  0  0  0  0
    5.6122  -13.0532   20.5570 N   0  0  0  0  0  0  0  0  0  0  0  0
    4.9194  -13.0613   19.2414 C   0  0  0  0  0  0  0  0  0  0  0  0
    6.6916  -12.0702   20.5412 C   0  0  0  0  0  0  0  0  0  0  0  0
    6.6929  -10.9014   20.8522 O   0  0  0  0  0  0  0  0  0  0  0  0
    8.0590  -12.6378   19.9695 C   0  0  0  0  0  0  0  0  0  0  0  0
    8.0385  -13.0507   18.5052 C   0  0  0  0  0  0  0  0  0  0  0  0
    9.7049  -13.5826   17.9892 S   0  0  0  0  0  0  0  0  0  0  0  0
   10.5600  -12.0104   18.2677 C   0  0  0  0  0  0  0  0  0  0  0  0
   10.2549  -11.3541   19.6021 C   0  0  0  0  0  0  0  0  0  0  0  0
   11.0260  -10.5362   20.1088 O   0  0  0  0  0  0  0  0  0  0  0  0
    9.0709  -11.5832   20.2271 N   0  0  0  0  0  0  0  0  0  0  0  0
   -3.6164  -12.7355   28.6184 H   0  0  0  0  0  0  0  0  0  0  0  0
   -4.1503  -13.9204   29.7759 H   0  0  0  0  0  0  0  0  0  0  0  0
   -2.5951  -13.1664   30.0339 H   0  0  0  0  0  0  0  0  0  0  0  0
   -2.8951  -15.8978   30.2304 H   0  0  0  0  0  0  0  0  0  0  0  0
   -2.7375  -17.9626   28.8093 H   0  0  0  0  0  0  0  0  0  0  0  0
   -2.1918  -13.2490   25.4205 H   0  0  0  0  0  0  0  0  0  0  0  0
   -2.2897  -15.0121   24.8679 H   0  0  0  0  0  0  0  0  0  0  0  0
    1.0711  -11.7036   23.2101 H   0  0  0  0  0  0  0  0  0  0  0  0
    2.5979  -11.6864   23.9144 H   0  0  0  0  0  0  0  0  0  0  0  0
    1.4575  -11.8201   25.0661 H   0  0  0  0  0  0  0  0  0  0  0  0
    2.7693  -12.3537   22.5254 H   0  0  0  0  0  0  0  0  0  0  0  0
    2.9724  -14.3622   22.7892 H   0  0  0  0  0  0  0  0  0  0  0  0
    4.1179  -11.9047   21.4242 H   0  0  0  0  0  0  0  0  0  0  0  0
    3.2024  -13.4436   20.6169 H   0  0  0  0  0  0  0  0  0  0  0  0
    3.9281  -13.3556   18.9422 H   0  0  0  0  0  0  0  0  0  0  0  0
    5.2884  -12.2461   18.6122 H   0  0  0  0  0  0  0  0  0  0  0  0
    5.4388  -13.9022   18.7550 H   0  0  0  0  0  0  0  0  0  0  0  0
    8.3596  -13.4907   20.5849 H   0  0  0  0  0  0  0  0  0  0  0  0
    7.3966  -13.9158   18.3443 H   0  0  0  0  0  0  0  0  0  0  0  0
    7.6950  -12.2400   17.8545 H   0  0  0  0  0  0  0  0  0  0  0  0
   10.2940  -11.3215   17.4621 H   0  0  0  0  0  0  0  0  0  0  0  0
   11.6354  -12.2055   18.2193 H   0  0  0  0  0  0  0  0  0  0  0  0
    8.9175  -11.0225   21.0569 H   0  0  0  0  0  0  0  0  0  0  0  0
  1  2  1  0
  2  3  1  0
  3  4  1  0
  4  5  2  0
  5  6  1  0
  6  7  1  0
  7  8  1  0
  8  9  2  0
  8 10  1  0
 10 11  1  0
 10 12  1  0
 12 13  1  0
 13 14  1  0
 14 15  1  0
 14 16  1  0
 16 17  2  0
 16 18  1  0
 18 19  1  0
 19 20  1  0
 20 21  1  0
 21 22  1  0
 22 23  2  0
 22 24  1  0
  6  2  2  0
 24 18  1  0
  1 25  1  0
  1 26  1  0
  1 27  1  0
  3 28  1  0
  4 29  1  0
  7 30  1  0
  7 31  1  0
 11 32  1  0
 11 33  1  0
 11 34  1  0
 12 35  1  0
 12 36  1  0
 13 37  1  0
 13 38  1  0
 15 39  1  0
 15 40  1  0
 15 41  1  0
 18 42  1  0
 19 43  1  0
 19 44  1  0
 21 45  1  0
 21 46  1  0
 24 47  1  0
M  END
>  <Energy>  (354) 
771.9156698405011

>  <compound_id>  (354) 
53512

>  <target_id>  (354) 
1

>  <reference_id>  (354) 
98

>  <inspiration_ids>  (354) 
[101, 98]

>  <energy_score>  (354) 
627.8795598141828

>  <distance_score>  (354) 
12.529737640651215

>  <path>  (354) 
/opt/xchem-fragalysis-2/maxwin/BulkDock/SCRATCH/511024/C53512-P98/C53512-P98.minimised.mol

>  <scratch_subdir>  (354) 
/opt/xchem-fragalysis-2/maxwin/BulkDock/SCRATCH/511024/C53512-P98

>  <fragmenstein_runtime>  (354) 
30.522385597229004

>  <fragmenstein_outcome>  (354) 
too moved

>  <fragmenstein_mode>  (354) 
expansion

>  <fragmenstein_error>  (354) 


$$$$
C53513-P101
     RDKit          3D

 28 30  0  0  0  0  0  0  0  0999 V2000
    2.1055  -17.9249   14.5024 C   0  0  0  0  0  0  0  0  0  0  0  0
    2.5068  -18.4365   15.7938 N   0  0  0  0  0  0  0  0  0  0  0  0
    1.9441  -19.5266   16.4185 C   0  0  0  0  0  0  0  0  0  0  0  0
    2.7691  -19.7895   17.4775 C   0  0  0  0  0  0  0  0  0  0  0  0
    3.7953  -18.8660   17.5167 N   0  0  0  0  0  0  0  0  0  0  0  0
    3.5824  -17.9842   16.5478 C   0  0  0  0  0  0  0  0  0  0  0  0
    4.3861  -16.7728   16.2609 C   0  0  0  0  0  0  0  0  0  0  0  0
    4.4517  -16.2130   15.0610 N   0  0  0  0  0  0  0  0  0  0  0  0
    5.2350  -15.0693   15.1426 N   0  0  0  0  0  0  0  0  0  0  0  0
    5.6257  -14.9434   16.3952 C   0  0  0  0  0  0  0  0  0  0  0  0
    6.3521  -13.7814   17.0641 C   0  0  0  0  0  0  0  0  0  0  0  0
    5.8464  -12.4068   16.6220 C   0  0  0  0  0  0  0  0  0  0  0  0
    7.0050  -11.4569   16.9238 C   0  0  0  0  0  0  0  0  0  0  0  0
    8.2171  -12.3501   16.8811 C   0  0  0  0  0  0  0  0  0  0  0  0
    9.3749  -11.9799   16.9885 O   0  0  0  0  0  0  0  0  0  0  0  0
    7.7716  -13.6658   16.7714 N   0  0  0  0  0  0  0  0  0  0  0  0
    5.1393  -16.0057   17.1726 O   0  0  0  0  0  0  0  0  0  0  0  0
    2.9088  -18.1245   13.7885 H   0  0  0  0  0  0  0  0  0  0  0  0
    1.1954  -18.4351   14.1761 H   0  0  0  0  0  0  0  0  0  0  0  0
    1.9161  -16.8530   14.5868 H   0  0  0  0  0  0  0  0  0  0  0  0
    1.0684  -20.0343   16.0375 H   0  0  0  0  0  0  0  0  0  0  0  0
    2.7024  -20.5922   18.2008 H   0  0  0  0  0  0  0  0  0  0  0  0
    6.2600  -13.8810   18.1530 H   0  0  0  0  0  0  0  0  0  0  0  0
    5.6411  -12.3892   15.5435 H   0  0  0  0  0  0  0  0  0  0  0  0
    4.9230  -12.1154   17.1331 H   0  0  0  0  0  0  0  0  0  0  0  0
    7.0722  -10.6799   16.1623 H   0  0  0  0  0  0  0  0  0  0  0  0
    6.9148  -11.0221   17.9231 H   0  0  0  0  0  0  0  0  0  0  0  0
    8.4394  -14.4166   16.8967 H   0  0  0  0  0  0  0  0  0  0  0  0
  1  2  1  0
  2  3  1  0
  3  4  2  0
  4  5  1  0
  5  6  2  0
  6  7  1  0
  7  8  2  0
  8  9  1  0
  9 10  2  0
 10 11  1  0
 11 12  1  0
 12 13  1  0
 13 14  1  0
 14 15  2  0
 14 16  1  0
 10 17  1  0
  6  2  1  0
 17  7  1  0
 16 11  1  0
  1 18  1  0
  1 19  1  0
  1 20  1  0
  3 21  1  0
  4 22  1  0
 11 23  1  0
 12 24  1  0
 12 25  1  0
 13 26  1  0
 13 27  1  0
 16 28  1  0
M  END
>  <Energy>  (355) 
22.301434159750386

>  <compound_id>  (355) 
53513

>  <target_id>  (355) 
1

>  <reference_id>  (355) 
101

>  <inspiration_ids>  (355) 
[101, 98]

>  <energy_score>  (355) 
-31.764319620426505

>  <distance_score>  (355) 
15.177403266445863

>  <path>  (355) 
/opt/xchem-fragalysis-2/maxwin/BulkDock/SCRATCH/511024/C53513-P101/C53513-P101.minimised.mol

>  <scratch_subdir>  (355) 
/opt/xchem-fragalysis-2/maxwin/BulkDock/SCRATCH/511024/C53513-P101

>  <fragmenstein_runtime>  (355) 
9.83863615989685

>  <fragmenstein_outcome>  (355) 
too moved

>  <fragmenstein_mode>  (355) 
expansion

>  <fragmenstein_error>  (355) 


$$$$
C53513-P98
     RDKit          3D

 28 30  0  0  0  0  0  0  0  0999 V2000
   -2.3379  -16.4366   18.7031 C   0  0  0  0  0  0  0  0  0  0  0  0
   -1.3767  -16.1050   19.7432 N   0  0  0  0  0  0  0  0  0  0  0  0
   -1.5800  -17.2093   20.5431 C   0  0  0  0  0  0  0  0  0  0  0  0
   -0.4590  -16.9153   21.2059 C   0  0  0  0  0  0  0  0  0  0  0  0
    0.4023  -17.1622   20.3158 N   0  0  0  0  0  0  0  0  0  0  0  0
    0.4067  -16.0518   19.6459 C   0  0  0  0  0  0  0  0  0  0  0  0
    1.7892  -15.1802   18.5323 C   0  0  0  0  0  0  0  0  0  0  0  0
    2.8112  -14.5771   18.9974 N   0  0  0  0  0  0  0  0  0  0  0  0
    3.7244  -14.0363   18.1345 N   0  0  0  0  0  0  0  0  0  0  0  0
    3.1971  -14.0157   16.9612 C   0  0  0  0  0  0  0  0  0  0  0  0
    3.9472  -13.4921   15.7356 C   0  0  0  0  0  0  0  0  0  0  0  0
    3.5621  -12.1270   15.1878 C   0  0  0  0  0  0  0  0  0  0  0  0
    4.4023  -11.1000   15.9579 C   0  0  0  0  0  0  0  0  0  0  0  0
    5.6435  -11.8759   16.3072 C   0  0  0  0  0  0  0  0  0  0  0  0
    6.6801  -11.4085   16.7520 O   0  0  0  0  0  0  0  0  0  0  0  0
    5.3606  -13.2194   16.0776 N   0  0  0  0  0  0  0  0  0  0  0  0
    1.8686  -14.5490   17.0401 O   0  0  0  0  0  0  0  0  0  0  0  0
   -2.1555  -17.4619   18.3502 H   0  0  0  0  0  0  0  0  0  0  0  0
   -3.3194  -16.5550   19.1443 H   0  0  0  0  0  0  0  0  0  0  0  0
   -2.2020  -15.6624   17.9727 H   0  0  0  0  0  0  0  0  0  0  0  0
   -2.1694  -18.0676   20.2588 H   0  0  0  0  0  0  0  0  0  0  0  0
   -0.3061  -16.0122   21.7628 H   0  0  0  0  0  0  0  0  0  0  0  0
    3.9278  -14.2639   14.9597 H   0  0  0  0  0  0  0  0  0  0  0  0
    3.8598  -12.0763   14.1307 H   0  0  0  0  0  0  0  0  0  0  0  0
    2.4943  -11.9399   15.2120 H   0  0  0  0  0  0  0  0  0  0  0  0
    4.6418  -10.2308   15.3410 H   0  0  0  0  0  0  0  0  0  0  0  0
    3.9061  -10.7892   16.8818 H   0  0  0  0  0  0  0  0  0  0  0  0
    5.9787  -13.9115   16.4852 H   0  0  0  0  0  0  0  0  0  0  0  0
  1  2  1  0
  2  3  1  0
  3  4  2  0
  4  5  1  0
  5  6  2  0
  6  7  1  0
  7  8  2  0
  8  9  1  0
  9 10  2  0
 10 11  1  0
 11 12  1  0
 12 13  1  0
 13 14  1  0
 14 15  2  0
 14 16  1  0
 10 17  1  0
  6  2  1  0
 17  7  1  0
 16 11  1  0
  1 18  1  0
  1 19  1  0
  1 20  1  0
  3 21  1  0
  4 22  1  0
 11 23  1  0
 12 24  1  0
 12 25  1  0
 13 26  1  0
 13 27  1  0
 16 28  1  0
M  END
>  <Energy>  (356) 
323.01471990956225

>  <compound_id>  (356) 
53513

>  <target_id>  (356) 
1

>  <reference_id>  (356) 
98

>  <inspiration_ids>  (356) 
[101, 98]

>  <energy_score>  (356) 
268.9489661293845

>  <distance_score>  (356) 
14.22489215650743

>  <path>  (356) 
/opt/xchem-fragalysis-2/maxwin/BulkDock/SCRATCH/511024/C53513-P98/C53513-P98.minimised.mol

>  <scratch_subdir>  (356) 
/opt/xchem-fragalysis-2/maxwin/BulkDock/SCRATCH/511024/C53513-P98

>  <fragmenstein_runtime>  (356) 
9.601973295211792

>  <fragmenstein_outcome>  (356) 
too moved

>  <fragmenstein_mode>  (356) 
expansion

>  <fragmenstein_error>  (356) 


$$$$
C53514-P101
     RDKit          3D

 31 33  0  0  0  0  0  0  0  0999 V2000
   -1.0029  -11.3976   11.9576 C   0  0  0  0  0  0  0  0  0  0  0  0
   -0.4803  -12.7233   12.1981 N   0  0  0  0  0  0  0  0  0  0  0  0
   -1.2270  -13.8756   12.1792 C   0  0  0  0  0  0  0  0  0  0  0  0
   -0.2995  -14.8752   12.0651 C   0  0  0  0  0  0  0  0  0  0  0  0
    0.9840  -14.3602   12.0750 N   0  0  0  0  0  0  0  0  0  0  0  0
    0.8706  -13.0497   12.2572 C   0  0  0  0  0  0  0  0  0  0  0  0
    1.9597  -12.0505   12.3116 C   0  0  0  0  0  0  0  0  0  0  0  0
    1.8438  -10.8526   11.7493 N   0  0  0  0  0  0  0  0  0  0  0  0
    2.9618  -10.1042   12.0567 N   0  0  0  0  0  0  0  0  0  0  0  0
    3.7391  -10.8613   12.8022 C   0  0  0  0  0  0  0  0  0  0  0  0
    4.9639  -10.3846   13.5435 C   0  0  0  0  0  0  0  0  0  0  0  0
    5.8425   -9.5423   12.6125 C   0  0  0  0  0  0  0  0  0  0  0  0
    6.8483   -8.8259   13.4729 C   0  0  0  0  0  0  0  0  0  0  0  0
    7.6205   -9.7148   14.2921 N   0  0  0  0  0  0  0  0  0  0  0  0
    7.0917  -10.8261   14.8754 C   0  0  0  0  0  0  0  0  0  0  0  0
    7.6750  -11.3346   15.8294 O   0  0  0  0  0  0  0  0  0  0  0  0
    5.8467  -11.4284   14.2268 C   0  0  0  0  0  0  0  0  0  0  0  0
    3.2045  -12.1258   12.9808 O   0  0  0  0  0  0  0  0  0  0  0  0
   -0.7754  -10.7643   12.8173 H   0  0  0  0  0  0  0  0  0  0  0  0
   -0.5531  -11.0008   11.0441 H   0  0  0  0  0  0  0  0  0  0  0  0
   -2.0820  -11.4525   11.7954 H   0  0  0  0  0  0  0  0  0  0  0  0
   -2.3065  -13.8828   12.1663 H   0  0  0  0  0  0  0  0  0  0  0  0
   -0.4762  -15.9356   11.9502 H   0  0  0  0  0  0  0  0  0  0  0  0
    4.5723   -9.7240   14.3321 H   0  0  0  0  0  0  0  0  0  0  0  0
    6.3407  -10.1798   11.8709 H   0  0  0  0  0  0  0  0  0  0  0  0
    5.2526   -8.8020   12.0591 H   0  0  0  0  0  0  0  0  0  0  0  0
    7.5199   -8.2458   12.8424 H   0  0  0  0  0  0  0  0  0  0  0  0
    6.3092   -8.1662   14.1579 H   0  0  0  0  0  0  0  0  0  0  0  0
    8.3168   -9.2977   14.9157 H   0  0  0  0  0  0  0  0  0  0  0  0
    6.1712  -12.1989   13.5181 H   0  0  0  0  0  0  0  0  0  0  0  0
    5.2750  -11.9154   15.0211 H   0  0  0  0  0  0  0  0  0  0  0  0
  1  2  1  0
  2  3  1  0
  3  4  2  0
  4  5  1  0
  5  6  2  0
  6  7  1  0
  7  8  2  0
  8  9  1  0
  9 10  2  0
 10 11  1  0
 11 12  1  0
 12 13  1  0
 13 14  1  0
 14 15  1  0
 15 16  2  0
 15 17  1  0
 10 18  1  0
  6  2  1  0
 18  7  1  0
 17 11  1  0
  1 19  1  0
  1 20  1  0
  1 21  1  0
  3 22  1  0
  4 23  1  0
 11 24  1  0
 12 25  1  0
 12 26  1  0
 13 27  1  0
 13 28  1  0
 14 29  1  0
 17 30  1  0
 17 31  1  0
M  END
>  <Energy>  (357) 
1.6653763159720354

>  <compound_id>  (357) 
53514

>  <target_id>  (357) 
1

>  <reference_id>  (357) 
101

>  <inspiration_ids>  (357) 
[101, 98]

>  <energy_score>  (357) 
-11.989718228834619

>  <distance_score>  (357) 
16.12548393722375

>  <path>  (357) 
/opt/xchem-fragalysis-2/maxwin/BulkDock/SCRATCH/511024/C53514-P101/C53514-P101.minimised.mol

>  <scratch_subdir>  (357) 
/opt/xchem-fragalysis-2/maxwin/BulkDock/SCRATCH/511024/C53514-P101

>  <fragmenstein_runtime>  (357) 
10.835242748260498

>  <fragmenstein_outcome>  (357) 
too moved

>  <fragmenstein_mode>  (357) 
expansion

>  <fragmenstein_error>  (357) 


$$$$
C53514-P98
     RDKit          3D

 31 33  0  0  0  0  0  0  0  0999 V2000
   -2.2504   -8.9834   18.4936 C   0  0  0  0  0  0  0  0  0  0  0  0
   -2.3424   -9.0910   19.9259 N   0  0  0  0  0  0  0  0  0  0  0  0
   -3.4545   -9.6151   20.5459 C   0  0  0  0  0  0  0  0  0  0  0  0
   -3.3001   -9.2948   21.8639 C   0  0  0  0  0  0  0  0  0  0  0  0
   -2.0526   -8.7563   22.0804 N   0  0  0  0  0  0  0  0  0  0  0  0
   -1.4849   -8.5645   20.8822 C   0  0  0  0  0  0  0  0  0  0  0  0
   -0.2156   -7.7996   20.6604 C   0  0  0  0  0  0  0  0  0  0  0  0
    0.4062   -7.1496   21.6395 N   0  0  0  0  0  0  0  0  0  0  0  0
    1.5287   -6.5110   21.1195 N   0  0  0  0  0  0  0  0  0  0  0  0
    1.5807   -6.7960   19.8377 C   0  0  0  0  0  0  0  0  0  0  0  0
    2.6495   -6.3609   18.8367 C   0  0  0  0  0  0  0  0  0  0  0  0
    2.9411   -7.4198   17.7726 C   0  0  0  0  0  0  0  0  0  0  0  0
    4.0817   -6.9817   16.8729 C   0  0  0  0  0  0  0  0  0  0  0  0
    5.2621   -6.7281   17.6386 N   0  0  0  0  0  0  0  0  0  0  0  0
    5.2597   -6.1012   18.8377 C   0  0  0  0  0  0  0  0  0  0  0  0
    6.3324   -5.7080   19.2875 O   0  0  0  0  0  0  0  0  0  0  0  0
    3.9424   -5.8932   19.5569 C   0  0  0  0  0  0  0  0  0  0  0  0
    0.4898   -7.5642   19.4457 O   0  0  0  0  0  0  0  0  0  0  0  0
   -1.3501   -8.4547   18.1889 H   0  0  0  0  0  0  0  0  0  0  0  0
   -3.1230   -8.4298   18.1343 H   0  0  0  0  0  0  0  0  0  0  0  0
   -2.2619   -9.9936   18.0795 H   0  0  0  0  0  0  0  0  0  0  0  0
   -4.2654  -10.0794   20.0024 H   0  0  0  0  0  0  0  0  0  0  0  0
   -4.0034   -9.4516   22.6726 H   0  0  0  0  0  0  0  0  0  0  0  0
    2.2353   -5.4841   18.3186 H   0  0  0  0  0  0  0  0  0  0  0  0
    3.1916   -8.3721   18.2464 H   0  0  0  0  0  0  0  0  0  0  0  0
    2.0449   -7.5989   17.1665 H   0  0  0  0  0  0  0  0  0  0  0  0
    3.8261   -6.0632   16.3335 H   0  0  0  0  0  0  0  0  0  0  0  0
    4.3171   -7.7581   16.1385 H   0  0  0  0  0  0  0  0  0  0  0  0
    6.1673   -6.7510   17.1973 H   0  0  0  0  0  0  0  0  0  0  0  0
    3.8513   -4.8188   19.7628 H   0  0  0  0  0  0  0  0  0  0  0  0
    4.0573   -6.3782   20.5315 H   0  0  0  0  0  0  0  0  0  0  0  0
  1  2  1  0
  2  3  1  0
  3  4  2  0
  4  5  1  0
  5  6  2  0
  6  7  1  0
  7  8  2  0
  8  9  1  0
  9 10  2  0
 10 11  1  0
 11 12  1  0
 12 13  1  0
 13 14  1  0
 14 15  1  0
 15 16  2  0
 15 17  1  0
 10 18  1  0
  6  2  1  0
 18  7  1  0
 17 11  1  0
  1 19  1  0
  1 20  1  0
  1 21  1  0
  3 22  1  0
  4 23  1  0
 11 24  1  0
 12 25  1  0
 12 26  1  0
 13 27  1  0
 13 28  1  0
 14 29  1  0
 17 30  1  0
 17 31  1  0
M  END
>  <Energy>  (358) 
6.4367328116813685

>  <compound_id>  (358) 
53514

>  <target_id>  (358) 
1

>  <reference_id>  (358) 
98

>  <inspiration_ids>  (358) 
[101, 98]

>  <energy_score>  (358) 
-7.218361733125434

>  <distance_score>  (358) 
14.908365606264397

>  <path>  (358) 
/opt/xchem-fragalysis-2/maxwin/BulkDock/SCRATCH/511024/C53514-P98/C53514-P98.minimised.mol

>  <scratch_subdir>  (358) 
/opt/xchem-fragalysis-2/maxwin/BulkDock/SCRATCH/511024/C53514-P98

>  <fragmenstein_runtime>  (358) 
14.812877655029297

>  <fragmenstein_outcome>  (358) 
too moved

>  <fragmenstein_mode>  (358) 
expansion

>  <fragmenstein_error>  (358) 


$$$$
C58898-P85
     RDKit          3D

 34 36  0  0  0  0  0  0  0  0999 V2000
    3.5098  -11.9703    7.3210 C   0  0  0  0  0  0  0  0  0  0  0  0
    2.9940  -13.1036    6.8485 C   0  0  0  0  0  0  0  0  0  0  0  0
    3.4777  -14.4047    7.3287 C   0  0  0  0  0  0  0  0  0  0  0  0
    4.8127  -14.5575    7.7198 C   0  0  0  0  0  0  0  0  0  0  0  0
    5.2323  -15.7688    8.2304 C   0  0  0  0  0  0  0  0  0  0  0  0
    4.4330  -16.8390    8.3676 N   0  0  0  0  0  0  0  0  0  0  0  0
    3.1565  -16.6900    7.9466 C   0  0  0  0  0  0  0  0  0  0  0  0
    2.6427  -15.5138    7.4217 C   0  0  0  0  0  0  0  0  0  0  0  0
    1.8461  -12.9142    5.9223 C   0  0  0  0  0  0  0  0  0  0  0  0
    2.0006  -11.6005    5.0925 C   0  0  0  0  0  0  0  0  0  0  0  0
    2.2459  -10.2721    5.7171 N   0  0  0  0  0  0  0  0  0  0  0  0
    3.0055   -9.2320    4.7523 C   0  0  0  0  0  0  0  0  0  0  0  0
    3.1971   -7.5939    4.6579 C   0  0  0  0  0  0  0  0  0  0  0  0
    4.4011   -7.0000    4.7871 N   0  0  0  0  0  0  0  0  0  0  0  0
    4.2341   -5.6465    4.6724 C   0  0  0  0  0  0  0  0  0  0  0  0
    2.9048   -5.3640    4.5211 C   0  0  0  0  0  0  0  0  0  0  0  0
    2.2584   -6.5830    4.5414 N   0  0  0  0  0  0  0  0  0  0  0  0
    2.9939  -10.6219    6.9358 C   0  0  0  0  0  0  0  0  0  0  0  0
    4.2719  -11.9653    8.0955 H   0  0  0  0  0  0  0  0  0  0  0  0
    5.5311  -13.7474    7.6401 H   0  0  0  0  0  0  0  0  0  0  0  0
    6.2588  -15.9081    8.5492 H   0  0  0  0  0  0  0  0  0  0  0  0
    2.5326  -17.5763    8.0326 H   0  0  0  0  0  0  0  0  0  0  0  0
    1.6064  -15.4794    7.1049 H   0  0  0  0  0  0  0  0  0  0  0  0
    1.7571  -13.7604    5.2393 H   0  0  0  0  0  0  0  0  0  0  0  0
    0.9088  -12.8845    6.4733 H   0  0  0  0  0  0  0  0  0  0  0  0
    2.8326  -11.7745    4.4169 H   0  0  0  0  0  0  0  0  0  0  0  0
    1.0571  -11.5563    4.5676 H   0  0  0  0  0  0  0  0  0  0  0  0
    3.0002   -9.5973    3.7225 H   0  0  0  0  0  0  0  0  0  0  0  0
    3.9725   -9.2939    5.2115 H   0  0  0  0  0  0  0  0  0  0  0  0
    5.0695   -4.9625    4.7280 H   0  0  0  0  0  0  0  0  0  0  0  0
    2.3576   -4.4368    4.4392 H   0  0  0  0  0  0  0  0  0  0  0  0
    1.2578   -6.6854    4.6065 H   0  0  0  0  0  0  0  0  0  0  0  0
    3.8389   -9.9642    7.0992 H   0  0  0  0  0  0  0  0  0  0  0  0
    2.2221  -10.4959    7.6753 H   0  0  0  0  0  0  0  0  0  0  0  0
  1  2  2  0
  2  3  1  0
  3  4  2  0
  4  5  1  0
  5  6  2  0
  6  7  1  0
  7  8  2  0
  2  9  1  0
  9 10  1  0
 10 11  1  0
 11 12  1  0
 12 13  1  0
 13 14  2  0
 14 15  1  0
 15 16  2  0
 16 17  1  0
 11 18  1  0
 18  1  1  0
  8  3  1  0
 17 13  1  0
  1 19  1  0
  4 20  1  0
  5 21  1  0
  7 22  1  0
  8 23  1  0
  9 24  1  0
  9 25  1  0
 10 26  1  0
 10 27  1  0
 12 28  1  0
 12 29  1  0
 15 30  1  0
 16 31  1  0
 17 32  1  0
 18 33  1  0
 18 34  1  0
M  END
>  <Energy>  (359) 
97.299814888470038

>  <compound_id>  (359) 
58898

>  <target_id>  (359) 
1

>  <reference_id>  (359) 
85

>  <inspiration_ids>  (359) 
[85, 80]

>  <energy_score>  (359) 
37.85772247146957

>  <distance_score>  (359) 
9.742563952213695

>  <path>  (359) 
/opt/xchem-fragalysis-2/maxwin/BulkDock/SCRATCH/511024/C58898-P85/C58898-P85.minimised.mol

>  <scratch_subdir>  (359) 
/opt/xchem-fragalysis-2/maxwin/BulkDock/SCRATCH/511024/C58898-P85

>  <fragmenstein_runtime>  (359) 
7.531930685043335

>  <fragmenstein_outcome>  (359) 
too moved

>  <fragmenstein_mode>  (359) 
expansion

>  <fragmenstein_error>  (359) 


$$$$
C58898-P80
     RDKit          3D

 34 36  0  0  0  0  0  0  0  0999 V2000
    5.3891  -15.7600   10.1808 C   0  0  0  0  0  0  0  0  0  0  0  0
    4.5847  -16.8333   10.5348 C   0  0  0  0  0  0  0  0  0  0  0  0
    3.9277  -17.5464    9.4350 C   0  0  0  0  0  0  0  0  0  0  0  0
    2.5396  -17.4649    9.2924 C   0  0  0  0  0  0  0  0  0  0  0  0
    1.9715  -17.8741    8.0966 C   0  0  0  0  0  0  0  0  0  0  0  0
    2.6884  -18.3558    7.0597 N   0  0  0  0  0  0  0  0  0  0  0  0
    4.0175  -18.4747    7.2388 C   0  0  0  0  0  0  0  0  0  0  0  0
    4.6775  -18.0874    8.3902 C   0  0  0  0  0  0  0  0  0  0  0  0
    4.1782  -16.9978   12.1325 C   0  0  0  0  0  0  0  0  0  0  0  0
    5.1180  -15.5951   13.1695 C   0  0  0  0  0  0  0  0  0  0  0  0
    6.2144  -13.9725   12.8242 N   0  0  0  0  0  0  0  0  0  0  0  0
    6.0476  -12.1039   13.5921 C   0  0  0  0  0  0  0  0  0  0  0  0
    7.0827  -10.3114   14.0973 C   0  0  0  0  0  0  0  0  0  0  0  0
    6.8447   -8.5242   14.0019 N   0  0  0  0  0  0  0  0  0  0  0  0
    8.3658   -7.4262   14.5007 C   0  0  0  0  0  0  0  0  0  0  0  0
    9.4882   -8.8240   15.2455 C   0  0  0  0  0  0  0  0  0  0  0  0
    8.5164  -10.3267   15.1669 N   0  0  0  0  0  0  0  0  0  0  0  0
    5.9231  -14.3744   11.1217 C   0  0  0  0  0  0  0  0  0  0  0  0
    5.9133  -15.7858    9.2417 H   0  0  0  0  0  0  0  0  0  0  0  0
    1.9065  -17.0404   10.0638 H   0  0  0  0  0  0  0  0  0  0  0  0
    0.8979  -17.8139    7.9324 H   0  0  0  0  0  0  0  0  0  0  0  0
    4.5576  -18.8980    6.3977 H   0  0  0  0  0  0  0  0  0  0  0  0
    5.7566  -18.1722    8.4489 H   0  0  0  0  0  0  0  0  0  0  0  0
    3.1516  -17.2633   12.3694 H   0  0  0  0  0  0  0  0  0  0  0  0
    4.6609  -17.9561   12.4351 H   0  0  0  0  0  0  0  0  0  0  0  0
    5.5257  -16.5895   13.6335 H   0  0  0  0  0  0  0  0  0  0  0  0
    5.2212  -15.6030   14.2335 H   0  0  0  0  0  0  0  0  0  0  0  0
    5.1456  -11.6137   13.3162 H   0  0  0  0  0  0  0  0  0  0  0  0
    6.7346  -12.2502   12.8540 H   0  0  0  0  0  0  0  0  0  0  0  0
    8.0756   -6.5533   15.0647 H   0  0  0  0  0  0  0  0  0  0  0  0
   10.2735   -9.2630   15.8250 H   0  0  0  0  0  0  0  0  0  0  0  0
    8.9249  -11.2189   15.3717 H   0  0  0  0  0  0  0  0  0  0  0  0
    6.9393  -14.2837   10.7171 H   0  0  0  0  0  0  0  0  0  0  0  0
    5.0610  -13.7748   10.8343 H   0  0  0  0  0  0  0  0  0  0  0  0
  1  2  2  0
  2  3  1  0
  3  4  2  0
  4  5  1  0
  5  6  2  0
  6  7  1  0
  7  8  2  0
  2  9  1  0
  9 10  1  0
 10 11  1  0
 11 12  1  0
 12 13  1  0
 13 14  2  0
 14 15  1  0
 15 16  2  0
 16 17  1  0
 11 18  1  0
 18  1  1  0
  8  3  1  0
 17 13  1  0
  1 19  1  0
  4 20  1  0
  5 21  1  0
  7 22  1  0
  8 23  1  0
  9 24  1  0
  9 25  1  0
 10 26  1  0
 10 27  1  0
 12 28  1  0
 12 29  1  0
 15 30  1  0
 16 31  1  0
 17 32  1  0
 18 33  1  0
 18 34  1  0
M  END
>  <Energy>  (360) 
961.98148644224386

>  <compound_id>  (360) 
58898

>  <target_id>  (360) 
1

>  <reference_id>  (360) 
80

>  <inspiration_ids>  (360) 
[85, 80]

>  <energy_score>  (360) 
902.5393940252357

>  <distance_score>  (360) 
6.196342264491552

>  <path>  (360) 
/opt/xchem-fragalysis-2/maxwin/BulkDock/SCRATCH/511024/C58898-P80/C58898-P80.minimised.mol

>  <scratch_subdir>  (360) 
/opt/xchem-fragalysis-2/maxwin/BulkDock/SCRATCH/511024/C58898-P80

>  <fragmenstein_runtime>  (360) 
8.498403787612915

>  <fragmenstein_outcome>  (360) 
too moved

>  <fragmenstein_mode>  (360) 
expansion

>  <fragmenstein_error>  (360) 


$$$$
C58899-P85
     RDKit          3D

 36 37  0  0  0  0  0  0  0  0999 V2000
    6.2320  -12.7092    8.6073 F   0  0  0  0  0  0  0  0  0  0  0  0
    5.2007  -11.9216    8.3602 C   0  0  0  0  0  0  0  0  0  0  0  0
    4.7822  -12.4945    7.1719 F   0  0  0  0  0  0  0  0  0  0  0  0
    4.2429  -12.3323    9.2662 F   0  0  0  0  0  0  0  0  0  0  0  0
    5.3755   -9.9904    8.3401 C   0  0  0  0  0  0  0  0  0  0  0  0
    5.6912   -8.2098    9.1201 N   0  0  0  0  0  0  0  0  0  0  0  0
    6.7534   -7.1901   10.5602 C   0  0  0  0  0  0  0  0  0  0  0  0
    7.8913   -6.8198   12.4835 C   0  0  0  0  0  0  0  0  0  0  0  0
    8.7529   -5.7040   14.1941 N   0  0  0  0  0  0  0  0  0  0  0  0
   10.6087   -4.8456   14.3731 C   0  0  0  0  0  0  0  0  0  0  0  0
   11.0626   -3.3039   14.7480 C   0  0  0  0  0  0  0  0  0  0  0  0
   10.2232   -2.2896   15.0437 C   0  0  0  0  0  0  0  0  0  0  0  0
    8.7407   -2.6032   15.0684 C   0  0  0  0  0  0  0  0  0  0  0  0
    8.7479   -4.1238   15.2965 C   0  0  0  0  0  0  0  0  0  0  0  0
    3.8080  -10.3060    7.3709 C   0  0  0  0  0  0  0  0  0  0  0  0
    2.8728  -11.1597    7.8170 N   0  0  0  0  0  0  0  0  0  0  0  0
    2.1402  -11.5890    6.7533 C   0  0  0  0  0  0  0  0  0  0  0  0
    2.4374  -10.8234    5.6820 C   0  0  0  0  0  0  0  0  0  0  0  0
    3.4409   -9.9942    6.0905 N   0  0  0  0  0  0  0  0  0  0  0  0
    4.9621  -10.1686    9.3132 H   0  0  0  0  0  0  0  0  0  0  0  0
    4.8591   -8.3229    9.7335 H   0  0  0  0  0  0  0  0  0  0  0  0
    6.9079   -6.4241    9.7814 H   0  0  0  0  0  0  0  0  0  0  0  0
    5.6933   -7.0204   10.7822 H   0  0  0  0  0  0  0  0  0  0  0  0
    7.3745   -7.6305   13.0240 H   0  0  0  0  0  0  0  0  0  0  0  0
    8.6743   -7.4400   12.0541 H   0  0  0  0  0  0  0  0  0  0  0  0
   11.2218   -5.4822   15.0418 H   0  0  0  0  0  0  0  0  0  0  0  0
   11.0620   -4.7355   13.3809 H   0  0  0  0  0  0  0  0  0  0  0  0
   12.1353   -3.1288   14.7047 H   0  0  0  0  0  0  0  0  0  0  0  0
   10.5722   -1.2791   15.2176 H   0  0  0  0  0  0  0  0  0  0  0  0
    8.3196   -2.0848   15.9335 H   0  0  0  0  0  0  0  0  0  0  0  0
    8.1043   -2.2878   14.2462 H   0  0  0  0  0  0  0  0  0  0  0  0
    9.6362   -4.1778   15.8786 H   0  0  0  0  0  0  0  0  0  0  0  0
    8.1430   -4.3922   16.1084 H   0  0  0  0  0  0  0  0  0  0  0  0
    1.4524  -12.4200    6.7968 H   0  0  0  0  0  0  0  0  0  0  0  0
    2.0965  -10.8531    4.6702 H   0  0  0  0  0  0  0  0  0  0  0  0
    3.8534   -9.2782    5.5075 H   0  0  0  0  0  0  0  0  0  0  0  0
  1  2  1  0
  2  3  1  0
  2  4  1  0
  2  5  1  0
  5  6  1  0
  6  7  1  0
  7  8  1  0
  8  9  1  0
  9 10  1  0
 10 11  1  0
 11 12  2  0
 12 13  1  0
 13 14  1  0
  5 15  1  0
 15 16  2  0
 16 17  1  0
 17 18  2  0
 18 19  1  0
 14  9  1  0
 19 15  1  0
  5 20  1  0
  6 21  1  0
  7 22  1  0
  7 23  1  0
  8 24  1  0
  8 25  1  0
 10 26  1  0
 10 27  1  0
 11 28  1  0
 12 29  1  0
 13 30  1  0
 13 31  1  0
 14 32  1  0
 14 33  1  0
 17 34  1  0
 18 35  1  0
 19 36  1  0
M  END
>  <Energy>  (361) 
1241.9905661471926

>  <compound_id>  (361) 
58899

>  <target_id>  (361) 
1

>  <reference_id>  (361) 
85

>  <inspiration_ids>  (361) 
[85, 80]

>  <energy_score>  (361) 
1087.8395820091882

>  <distance_score>  (361) 
4.072085364227058

>  <path>  (361) 
/opt/xchem-fragalysis-2/maxwin/BulkDock/SCRATCH/511024/C58899-P85/C58899-P85.minimised.mol

>  <scratch_subdir>  (361) 
/opt/xchem-fragalysis-2/maxwin/BulkDock/SCRATCH/511024/C58899-P85

>  <fragmenstein_runtime>  (361) 
9.687458992004395

>  <fragmenstein_outcome>  (361) 
too moved

>  <fragmenstein_mode>  (361) 
expansion

>  <fragmenstein_error>  (361) 


$$$$
C58899-P80
     RDKit          3D

 36 37  0  0  0  0  0  0  0  0999 V2000
    5.0665  -12.9015    9.1151 F   0  0  0  0  0  0  0  0  0  0  0  0
    4.6246  -13.6582   10.0971 C   0  0  0  0  0  0  0  0  0  0  0  0
    5.6089  -14.5255   10.4752 F   0  0  0  0  0  0  0  0  0  0  0  0
    3.6226  -14.4200    9.5923 F   0  0  0  0  0  0  0  0  0  0  0  0
    4.2844  -12.3066   11.3530 C   0  0  0  0  0  0  0  0  0  0  0  0
    5.2449  -11.1787   12.9081 N   0  0  0  0  0  0  0  0  0  0  0  0
    6.6204   -9.8596   13.7920 C   0  0  0  0  0  0  0  0  0  0  0  0
    7.2324   -7.7701   14.1874 C   0  0  0  0  0  0  0  0  0  0  0  0
    8.5697   -6.1186   14.4561 N   0  0  0  0  0  0  0  0  0  0  0  0
    8.6080   -4.1762   14.9638 C   0  0  0  0  0  0  0  0  0  0  0  0
    9.6022   -2.8894   14.9449 C   0  0  0  0  0  0  0  0  0  0  0  0
   10.8740   -2.8915   15.2952 C   0  0  0  0  0  0  0  0  0  0  0  0
   11.2626   -4.2444   15.6009 C   0  0  0  0  0  0  0  0  0  0  0  0
   10.4045   -5.2576   14.5192 C   0  0  0  0  0  0  0  0  0  0  0  0
    2.9269  -12.0514   10.7611 C   0  0  0  0  0  0  0  0  0  0  0  0
    2.8419  -12.2676    9.4780 N   0  0  0  0  0  0  0  0  0  0  0  0
    3.3110  -11.0975    9.1439 C   0  0  0  0  0  0  0  0  0  0  0  0
    3.1720  -10.2981   10.2298 C   0  0  0  0  0  0  0  0  0  0  0  0
    2.3245  -10.8875   11.0615 N   0  0  0  0  0  0  0  0  0  0  0  0
    4.5461  -13.2239   11.7471 H   0  0  0  0  0  0  0  0  0  0  0  0
    5.4919  -11.9679   13.5343 H   0  0  0  0  0  0  0  0  0  0  0  0
    5.5214   -9.5809   14.1099 H   0  0  0  0  0  0  0  0  0  0  0  0
    7.2078   -9.4632   12.8971 H   0  0  0  0  0  0  0  0  0  0  0  0
    6.9694   -7.6037   13.0936 H   0  0  0  0  0  0  0  0  0  0  0  0
    6.5684   -7.4297   14.9599 H   0  0  0  0  0  0  0  0  0  0  0  0
    7.9979   -3.4754   14.2769 H   0  0  0  0  0  0  0  0  0  0  0  0
    7.9896   -4.2047   15.8328 H   0  0  0  0  0  0  0  0  0  0  0  0
    9.1197   -1.9239   14.7764 H   0  0  0  0  0  0  0  0  0  0  0  0
   11.5093   -2.0210   15.3613 H   0  0  0  0  0  0  0  0  0  0  0  0
   11.1496   -4.5049   16.6534 H   0  0  0  0  0  0  0  0  0  0  0  0
   12.3425   -4.2889   15.4513 H   0  0  0  0  0  0  0  0  0  0  0  0
   10.7732   -4.9443   13.5205 H   0  0  0  0  0  0  0  0  0  0  0  0
   10.7492   -6.2771   15.0090 H   0  0  0  0  0  0  0  0  0  0  0  0
    4.0183  -10.9095    8.3978 H   0  0  0  0  0  0  0  0  0  0  0  0
    3.7198   -9.4215   10.4590 H   0  0  0  0  0  0  0  0  0  0  0  0
    2.1567  -10.5159   11.9843 H   0  0  0  0  0  0  0  0  0  0  0  0
  1  2  1  0
  2  3  1  0
  2  4  1  0
  2  5  1  0
  5  6  1  0
  6  7  1  0
  7  8  1  0
  8  9  1  0
  9 10  1  0
 10 11  1  0
 11 12  2  0
 12 13  1  0
 13 14  1  0
  5 15  1  0
 15 16  2  0
 16 17  1  0
 17 18  2  0
 18 19  1  0
 14  9  1  0
 19 15  1  0
  5 20  1  0
  6 21  1  0
  7 22  1  0
  7 23  1  0
  8 24  1  0
  8 25  1  0
 10 26  1  0
 10 27  1  0
 11 28  1  0
 12 29  1  0
 13 30  1  0
 13 31  1  0
 14 32  1  0
 14 33  1  0
 17 34  1  0
 18 35  1  0
 19 36  1  0
M  END
>  <Energy>  (362) 
1382.9235858338111

>  <compound_id>  (362) 
58899

>  <target_id>  (362) 
1

>  <reference_id>  (362) 
80

>  <inspiration_ids>  (362) 
[85, 80]

>  <energy_score>  (362) 
1228.772601695805

>  <distance_score>  (362) 
4.209635200767008

>  <path>  (362) 
/opt/xchem-fragalysis-2/maxwin/BulkDock/SCRATCH/511024/C58899-P80/C58899-P80.minimised.mol

>  <scratch_subdir>  (362) 
/opt/xchem-fragalysis-2/maxwin/BulkDock/SCRATCH/511024/C58899-P80

>  <fragmenstein_runtime>  (362) 
13.31705904006958

>  <fragmenstein_outcome>  (362) 
too moved

>  <fragmenstein_mode>  (362) 
expansion

>  <fragmenstein_error>  (362) 


$$$$
C58900-P85
     RDKit          3D

 34 36  0  0  0  0  0  0  0  0999 V2000
    5.8147   -7.3220   13.4508 O   0  0  0  0  0  0  0  0  0  0  0  0
    6.6908   -8.0059   14.3269 S   0  0  0  0  0  0  0  0  0  0  0  0
    6.5893   -7.5268   15.6848 O   0  0  0  0  0  0  0  0  0  0  0  0
    8.1850   -6.4350   15.2717 C   0  0  0  0  0  0  0  0  0  0  0  0
    7.5977   -5.5005   16.1944 N   0  0  0  0  0  0  0  0  0  0  0  0
    8.0707   -3.7394   15.8150 C   0  0  0  0  0  0  0  0  0  0  0  0
    9.2933   -3.6426   15.3888 C   0  0  0  0  0  0  0  0  0  0  0  0
    9.2340   -4.9708   14.9348 N   0  0  0  0  0  0  0  0  0  0  0  0
    5.5202  -10.0808   14.1603 N   0  0  0  0  0  0  0  0  0  0  0  0
    5.5065  -11.6802   13.2041 C   0  0  0  0  0  0  0  0  0  0  0  0
    4.5632  -12.3665   11.4244 C   0  0  0  0  0  0  0  0  0  0  0  0
    3.6593  -11.6871   10.6582 C   0  0  0  0  0  0  0  0  0  0  0  0
    3.5932  -12.1724    9.1380 C   0  0  0  0  0  0  0  0  0  0  0  0
    4.3251  -13.2928    8.6537 C   0  0  0  0  0  0  0  0  0  0  0  0
    4.3217  -13.7377    7.3194 C   0  0  0  0  0  0  0  0  0  0  0  0
    3.5918  -13.0301    6.4062 C   0  0  0  0  0  0  0  0  0  0  0  0
    2.8858  -11.9652    6.7559 N   0  0  0  0  0  0  0  0  0  0  0  0
    2.9018  -11.6118    8.0727 C   0  0  0  0  0  0  0  0  0  0  0  0
    3.3164  -10.4018   11.6078 C   0  0  0  0  0  0  0  0  0  0  0  0
    4.0467   -9.9294   13.4695 C   0  0  0  0  0  0  0  0  0  0  0  0
    7.2865   -3.0068   15.6365 H   0  0  0  0  0  0  0  0  0  0  0  0
   10.0076   -2.9007   15.0511 H   0  0  0  0  0  0  0  0  0  0  0  0
   10.1410   -5.2311   15.2909 H   0  0  0  0  0  0  0  0  0  0  0  0
    5.0823  -12.2115   14.0619 H   0  0  0  0  0  0  0  0  0  0  0  0
    6.4540  -12.2142   13.3589 H   0  0  0  0  0  0  0  0  0  0  0  0
    5.0794  -13.2608   11.0399 H   0  0  0  0  0  0  0  0  0  0  0  0
    4.9806  -13.8816    9.2782 H   0  0  0  0  0  0  0  0  0  0  0  0
    4.9074  -14.5975    7.0213 H   0  0  0  0  0  0  0  0  0  0  0  0
    3.5583  -13.2632    5.3528 H   0  0  0  0  0  0  0  0  0  0  0  0
    2.1828  -10.8374    8.1831 H   0  0  0  0  0  0  0  0  0  0  0  0
    2.2227  -10.3767   11.5524 H   0  0  0  0  0  0  0  0  0  0  0  0
    3.8153   -9.7525   10.9201 H   0  0  0  0  0  0  0  0  0  0  0  0
    3.4907  -10.4548   14.2247 H   0  0  0  0  0  0  0  0  0  0  0  0
    4.0827   -8.8332   13.6043 H   0  0  0  0  0  0  0  0  0  0  0  0
  1  2  2  0
  2  3  2  0
  2  4  1  0
  4  5  2  0
  5  6  1  0
  6  7  2  0
  7  8  1  0
  2  9  1  0
  9 10  1  0
 10 11  1  0
 11 12  2  0
 12 13  1  0
 13 14  2  0
 14 15  1  0
 15 16  2  0
 16 17  1  0
 17 18  2  0
 12 19  1  0
 19 20  1  0
  8  4  1  0
 20  9  1  0
 18 13  1  0
  6 21  1  0
  7 22  1  0
  8 23  1  0
 10 24  1  0
 10 25  1  0
 11 26  1  0
 14 27  1  0
 15 28  1  0
 16 29  1  0
 18 30  1  0
 19 31  1  0
 19 32  1  0
 20 33  1  0
 20 34  1  0
M  END
>  <Energy>  (363) 
966.05077179916805

>  <compound_id>  (363) 
58900

>  <target_id>  (363) 
1

>  <reference_id>  (363) 
85

>  <inspiration_ids>  (363) 
[85, 80]

>  <energy_score>  (363) 
907.0973472588238

>  <distance_score>  (363) 
5.73548842906006

>  <path>  (363) 
/opt/xchem-fragalysis-2/maxwin/BulkDock/SCRATCH/511024/C58900-P85/C58900-P85.minimised.mol

>  <scratch_subdir>  (363) 
/opt/xchem-fragalysis-2/maxwin/BulkDock/SCRATCH/511024/C58900-P85

>  <fragmenstein_runtime>  (363) 
6.6309990882873535

>  <fragmenstein_outcome>  (363) 
too moved

>  <fragmenstein_mode>  (363) 
expansion

>  <fragmenstein_error>  (363) 


$$$$
C58900-P80
     RDKit          3D

 34 36  0  0  0  0  0  0  0  0999 V2000
    7.0910   -7.2921    9.2440 O   0  0  0  0  0  0  0  0  0  0  0  0
    5.7000   -6.9257    9.0793 S   0  0  0  0  0  0  0  0  0  0  0  0
    4.8264   -6.3746   10.0914 O   0  0  0  0  0  0  0  0  0  0  0  0
    6.0122   -5.5273    8.0266 C   0  0  0  0  0  0  0  0  0  0  0  0
    5.1923   -4.5646    7.6424 N   0  0  0  0  0  0  0  0  0  0  0  0
    5.9890   -3.4854    7.3366 C   0  0  0  0  0  0  0  0  0  0  0  0
    7.3173   -3.7764    7.5263 C   0  0  0  0  0  0  0  0  0  0  0  0
    7.3240   -5.0779    7.9240 N   0  0  0  0  0  0  0  0  0  0  0  0
    4.9325   -8.3358    8.7791 N   0  0  0  0  0  0  0  0  0  0  0  0
    5.6244   -9.3682    8.0353 C   0  0  0  0  0  0  0  0  0  0  0  0
    4.5535  -10.7446    8.5133 C   0  0  0  0  0  0  0  0  0  0  0  0
    3.1924  -11.1468    8.7045 C   0  0  0  0  0  0  0  0  0  0  0  0
    1.8456  -11.1423    7.5667 C   0  0  0  0  0  0  0  0  0  0  0  0
    1.1829  -12.3000    6.8456 C   0  0  0  0  0  0  0  0  0  0  0  0
    0.7698  -12.3694    5.5853 C   0  0  0  0  0  0  0  0  0  0  0  0
    1.4231  -11.3691    5.0468 C   0  0  0  0  0  0  0  0  0  0  0  0
    1.5365  -10.1279    5.5297 N   0  0  0  0  0  0  0  0  0  0  0  0
    1.6902  -10.0563    6.8094 C   0  0  0  0  0  0  0  0  0  0  0  0
    2.8876  -10.5160   10.0491 C   0  0  0  0  0  0  0  0  0  0  0  0
    4.0034   -9.2799   10.2026 C   0  0  0  0  0  0  0  0  0  0  0  0
    5.5554   -2.5483    7.0094 H   0  0  0  0  0  0  0  0  0  0  0  0
    8.2166   -3.1879    7.4164 H   0  0  0  0  0  0  0  0  0  0  0  0
    8.1054   -5.6061    8.2934 H   0  0  0  0  0  0  0  0  0  0  0  0
    5.8298   -8.9790    7.0234 H   0  0  0  0  0  0  0  0  0  0  0  0
    6.6432   -9.6781    8.2990 H   0  0  0  0  0  0  0  0  0  0  0  0
    5.3399  -11.4691    8.6790 H   0  0  0  0  0  0  0  0  0  0  0  0
    1.2002  -13.3198    7.2355 H   0  0  0  0  0  0  0  0  0  0  0  0
    0.5462  -13.3142    5.1360 H   0  0  0  0  0  0  0  0  0  0  0  0
    2.0583  -11.4939    4.1897 H   0  0  0  0  0  0  0  0  0  0  0  0
    2.3717   -9.3207    7.0611 H   0  0  0  0  0  0  0  0  0  0  0  0
    1.8846  -10.1435   10.2890 H   0  0  0  0  0  0  0  0  0  0  0  0
    3.0296  -11.2758   10.8212 H   0  0  0  0  0  0  0  0  0  0  0  0
    4.5470  -10.1499   10.3469 H   0  0  0  0  0  0  0  0  0  0  0  0
    3.7163   -8.5468   10.9807 H   0  0  0  0  0  0  0  0  0  0  0  0
  1  2  2  0
  2  3  2  0
  2  4  1  0
  4  5  2  0
  5  6  1  0
  6  7  2  0
  7  8  1  0
  2  9  1  0
  9 10  1  0
 10 11  1  0
 11 12  2  0
 12 13  1  0
 13 14  2  0
 14 15  1  0
 15 16  2  0
 16 17  1  0
 17 18  2  0
 12 19  1  0
 19 20  1  0
  8  4  1  0
 20  9  1  0
 18 13  1  0
  6 21  1  0
  7 22  1  0
  8 23  1  0
 10 24  1  0
 10 25  1  0
 11 26  1  0
 14 27  1  0
 15 28  1  0
 16 29  1  0
 18 30  1  0
 19 31  1  0
 19 32  1  0
 20 33  1  0
 20 34  1  0
M  END
>  <Energy>  (364) 
355.99532333454505

>  <compound_id>  (364) 
58900

>  <target_id>  (364) 
1

>  <reference_id>  (364) 
80

>  <inspiration_ids>  (364) 
[85, 80]

>  <energy_score>  (364) 
297.0418987942152

>  <distance_score>  (364) 
7.90956411748479

>  <path>  (364) 
/opt/xchem-fragalysis-2/maxwin/BulkDock/SCRATCH/511024/C58900-P80/C58900-P80.minimised.mol

>  <scratch_subdir>  (364) 
/opt/xchem-fragalysis-2/maxwin/BulkDock/SCRATCH/511024/C58900-P80

>  <fragmenstein_runtime>  (364) 
8.143910884857178

>  <fragmenstein_outcome>  (364) 
too moved

>  <fragmenstein_mode>  (364) 
expansion

>  <fragmenstein_error>  (364) 


$$$$
C58901-P85
     RDKit          3D

 36 38  0  0  0  0  0  0  0  0999 V2000
    3.8357   -7.6457   12.3871 O   0  0  0  0  0  0  0  0  0  0  0  0
    3.0476   -8.3052   11.7224 C   0  0  0  0  0  0  0  0  0  0  0  0
    1.6398   -7.3115   11.0056 C   0  0  0  0  0  0  0  0  0  0  0  0
    1.7897   -5.7489   11.2466 C   0  0  0  0  0  0  0  0  0  0  0  0
    2.6801   -5.1080   11.9955 N   0  0  0  0  0  0  0  0  0  0  0  0
    2.5485   -3.7733   11.7574 C   0  0  0  0  0  0  0  0  0  0  0  0
    1.5428   -3.5690   10.8524 C   0  0  0  0  0  0  0  0  0  0  0  0
    1.0584   -4.8174   10.5489 N   0  0  0  0  0  0  0  0  0  0  0  0
    2.9413  -10.1782   11.4461 N   0  0  0  0  0  0  0  0  0  0  0  0
    3.9971  -10.6000    9.9472 C   0  0  0  0  0  0  0  0  0  0  0  0
    4.6931  -11.7802    8.6498 C   0  0  0  0  0  0  0  0  0  0  0  0
    3.8381  -12.6107    8.1384 C   0  0  0  0  0  0  0  0  0  0  0  0
    3.5596  -13.8056    7.3799 C   0  0  0  0  0  0  0  0  0  0  0  0
    4.0599  -15.0179    7.8544 C   0  0  0  0  0  0  0  0  0  0  0  0
    3.3355  -16.1841    7.6238 C   0  0  0  0  0  0  0  0  0  0  0  0
    2.1652  -16.1054    6.8834 C   0  0  0  0  0  0  0  0  0  0  0  0
    1.7054  -14.9645    6.3363 N   0  0  0  0  0  0  0  0  0  0  0  0
    2.4039  -13.8409    6.5983 C   0  0  0  0  0  0  0  0  0  0  0  0
    2.8156  -12.0661    8.9474 C   0  0  0  0  0  0  0  0  0  0  0  0
    3.5251  -11.1604   10.4301 C   0  0  0  0  0  0  0  0  0  0  0  0
    0.7993   -7.5342   11.6764 H   0  0  0  0  0  0  0  0  0  0  0  0
    1.0796   -7.6601   10.1457 H   0  0  0  0  0  0  0  0  0  0  0  0
    3.1819   -3.0431   12.2434 H   0  0  0  0  0  0  0  0  0  0  0  0
    1.1352   -2.6743   10.4052 H   0  0  0  0  0  0  0  0  0  0  0  0
    0.3286   -5.0264    9.8817 H   0  0  0  0  0  0  0  0  0  0  0  0
    4.5440   -9.6632   10.3410 H   0  0  0  0  0  0  0  0  0  0  0  0
    4.8937  -10.0682    9.3203 H   0  0  0  0  0  0  0  0  0  0  0  0
    5.7556  -11.7926    8.4230 H   0  0  0  0  0  0  0  0  0  0  0  0
    4.9214  -15.0433    8.5148 H   0  0  0  0  0  0  0  0  0  0  0  0
    3.6573  -17.1396    8.0225 H   0  0  0  0  0  0  0  0  0  0  0  0
    1.5714  -16.9917    6.6715 H   0  0  0  0  0  0  0  0  0  0  0  0
    1.9337  -12.9314    6.2297 H   0  0  0  0  0  0  0  0  0  0  0  0
    2.4394  -12.9911    9.3640 H   0  0  0  0  0  0  0  0  0  0  0  0
    2.2256  -11.3817    8.3201 H   0  0  0  0  0  0  0  0  0  0  0  0
    2.5694  -11.6528   10.8352 H   0  0  0  0  0  0  0  0  0  0  0  0
    4.0350  -12.0922   10.9534 H   0  0  0  0  0  0  0  0  0  0  0  0
  1  2  2  0
  2  3  1  0
  3  4  1  0
  4  5  2  0
  5  6  1  0
  6  7  2  0
  7  8  1  0
  2  9  1  0
  9 10  1  0
 10 11  1  0
 11 12  2  0
 12 13  1  0
 13 14  2  0
 14 15  1  0
 15 16  2  0
 16 17  1  0
 17 18  2  0
 12 19  1  0
 19 20  1  0
  8  4  1  0
 20  9  1  0
 18 13  1  0
  3 21  1  0
  3 22  1  0
  6 23  1  0
  7 24  1  0
  8 25  1  0
 10 26  1  0
 10 27  1  0
 11 28  1  0
 14 29  1  0
 15 30  1  0
 16 31  1  0
 18 32  1  0
 19 33  1  0
 19 34  1  0
 20 35  1  0
 20 36  1  0
M  END
>  <Energy>  (365) 
961.08523154398358

>  <compound_id>  (365) 
58901

>  <target_id>  (365) 
1

>  <reference_id>  (365) 
85

>  <inspiration_ids>  (365) 
[85, 80]

>  <energy_score>  (365) 
900.9898868394484

>  <distance_score>  (365) 
8.12907730783488

>  <path>  (365) 
/opt/xchem-fragalysis-2/maxwin/BulkDock/SCRATCH/511024/C58901-P85/C58901-P85.minimised.mol

>  <scratch_subdir>  (365) 
/opt/xchem-fragalysis-2/maxwin/BulkDock/SCRATCH/511024/C58901-P85

>  <fragmenstein_runtime>  (365) 
7.250569581985474

>  <fragmenstein_outcome>  (365) 
too moved

>  <fragmenstein_mode>  (365) 
expansion

>  <fragmenstein_error>  (365) 


$$$$
C58901-P80
     RDKit          3D

 36 38  0  0  0  0  0  0  0  0999 V2000
    3.7940  -10.4679   14.4769 O   0  0  0  0  0  0  0  0  0  0  0  0
    4.7107  -10.2034   13.7099 C   0  0  0  0  0  0  0  0  0  0  0  0
    5.3355   -8.3362   13.8418 C   0  0  0  0  0  0  0  0  0  0  0  0
    6.4352   -7.5712   14.8135 C   0  0  0  0  0  0  0  0  0  0  0  0
    7.6652   -7.5658   14.6808 N   0  0  0  0  0  0  0  0  0  0  0  0
    7.9504   -6.4714   15.1736 C   0  0  0  0  0  0  0  0  0  0  0  0
    7.1339   -5.9404   16.0749 C   0  0  0  0  0  0  0  0  0  0  0  0
    6.1066   -6.6480   16.1000 N   0  0  0  0  0  0  0  0  0  0  0  0
    4.9274  -11.2634   12.9127 N   0  0  0  0  0  0  0  0  0  0  0  0
    5.9525  -12.5344   13.2243 C   0  0  0  0  0  0  0  0  0  0  0  0
    6.0924  -13.8799   11.9121 C   0  0  0  0  0  0  0  0  0  0  0  0
    5.2613  -14.1266   10.7925 C   0  0  0  0  0  0  0  0  0  0  0  0
    5.6438  -15.2822    9.8680 C   0  0  0  0  0  0  0  0  0  0  0  0
    4.7645  -16.3544    9.5213 C   0  0  0  0  0  0  0  0  0  0  0  0
    5.2128  -17.4295    8.7552 C   0  0  0  0  0  0  0  0  0  0  0  0
    6.5340  -17.4370    8.3519 C   0  0  0  0  0  0  0  0  0  0  0  0
    7.4141  -16.4495    8.6230 N   0  0  0  0  0  0  0  0  0  0  0  0
    6.9544  -15.3800    9.3257 C   0  0  0  0  0  0  0  0  0  0  0  0
    3.9438  -13.0019   10.3899 C   0  0  0  0  0  0  0  0  0  0  0  0
    3.8640  -11.3038   11.2051 C   0  0  0  0  0  0  0  0  0  0  0  0
    5.8946   -7.7843   13.0720 H   0  0  0  0  0  0  0  0  0  0  0  0
    4.3720   -7.8415   13.7702 H   0  0  0  0  0  0  0  0  0  0  0  0
    8.5226   -5.7984   14.5577 H   0  0  0  0  0  0  0  0  0  0  0  0
    7.5877   -5.0128   16.2024 H   0  0  0  0  0  0  0  0  0  0  0  0
    5.1873   -6.4476   16.4870 H   0  0  0  0  0  0  0  0  0  0  0  0
    6.7848  -12.0685   13.4350 H   0  0  0  0  0  0  0  0  0  0  0  0
    5.5505  -12.9442   14.0990 H   0  0  0  0  0  0  0  0  0  0  0  0
    7.1101  -14.1059   11.7118 H   0  0  0  0  0  0  0  0  0  0  0  0
    3.7174  -16.3726    9.8088 H   0  0  0  0  0  0  0  0  0  0  0  0
    4.5475  -18.2472    8.4983 H   0  0  0  0  0  0  0  0  0  0  0  0
    6.9367  -18.2691    7.7811 H   0  0  0  0  0  0  0  0  0  0  0  0
    7.6807  -14.5799    9.4535 H   0  0  0  0  0  0  0  0  0  0  0  0
    2.9630  -13.3240   10.0835 H   0  0  0  0  0  0  0  0  0  0  0  0
    4.1766  -12.7509    9.3559 H   0  0  0  0  0  0  0  0  0  0  0  0
    3.9200  -10.4992   10.4236 H   0  0  0  0  0  0  0  0  0  0  0  0
    2.7977  -11.1059   11.4532 H   0  0  0  0  0  0  0  0  0  0  0  0
  1  2  2  0
  2  3  1  0
  3  4  1  0
  4  5  2  0
  5  6  1  0
  6  7  2  0
  7  8  1  0
  2  9  1  0
  9 10  1  0
 10 11  1  0
 11 12  2  0
 12 13  1  0
 13 14  2  0
 14 15  1  0
 15 16  2  0
 16 17  1  0
 17 18  2  0
 12 19  1  0
 19 20  1  0
  8  4  1  0
 20  9  1  0
 18 13  1  0
  3 21  1  0
  3 22  1  0
  6 23  1  0
  7 24  1  0
  8 25  1  0
 10 26  1  0
 10 27  1  0
 11 28  1  0
 14 29  1  0
 15 30  1  0
 16 31  1  0
 18 32  1  0
 19 33  1  0
 19 34  1  0
 20 35  1  0
 20 36  1  0
M  END
>  <Energy>  (366) 
462.80732094145588

>  <compound_id>  (366) 
58901

>  <target_id>  (366) 
1

>  <reference_id>  (366) 
80

>  <inspiration_ids>  (366) 
[85, 80]

>  <energy_score>  (366) 
402.711976236936

>  <distance_score>  (366) 
6.423107701326681

>  <path>  (366) 
/opt/xchem-fragalysis-2/maxwin/BulkDock/SCRATCH/511024/C58901-P80/C58901-P80.minimised.mol

>  <scratch_subdir>  (366) 
/opt/xchem-fragalysis-2/maxwin/BulkDock/SCRATCH/511024/C58901-P80

>  <fragmenstein_runtime>  (366) 
9.61983036994934

>  <fragmenstein_outcome>  (366) 
too moved

>  <fragmenstein_mode>  (366) 
expansion

>  <fragmenstein_error>  (366) 


$$$$
C58902-P85
     RDKit          3D

 39 41  0  0  0  0  0  0  0  0999 V2000
    5.2393  -11.3351   13.2129 O   0  0  0  0  0  0  0  0  0  0  0  0
    6.3177  -11.6796   13.3951 C   0  0  0  0  0  0  0  0  0  0  0  0
    7.3146  -10.1665   14.3616 C   0  0  0  0  0  0  0  0  0  0  0  0
    7.0426   -8.0338   14.5489 C   0  0  0  0  0  0  0  0  0  0  0  0
    8.1155   -6.4807   15.3341 C   0  0  0  0  0  0  0  0  0  0  0  0
    7.5127   -5.5656   16.1988 N   0  0  0  0  0  0  0  0  0  0  0  0
    8.0555   -3.7948   15.8478 C   0  0  0  0  0  0  0  0  0  0  0  0
    9.2677   -3.7005   15.3998 C   0  0  0  0  0  0  0  0  0  0  0  0
    9.1702   -5.0258   14.9382 N   0  0  0  0  0  0  0  0  0  0  0  0
    6.7454  -13.3622   12.5722 N   0  0  0  0  0  0  0  0  0  0  0  0
    7.4595  -13.7756   10.8639 C   0  0  0  0  0  0  0  0  0  0  0  0
    6.8406  -14.3004    9.3019 C   0  0  0  0  0  0  0  0  0  0  0  0
    5.6485  -13.9367    8.8545 C   0  0  0  0  0  0  0  0  0  0  0  0
    4.7716  -14.3984    7.7625 C   0  0  0  0  0  0  0  0  0  0  0  0
    4.2509  -15.6976    7.8237 C   0  0  0  0  0  0  0  0  0  0  0  0
    2.9729  -15.9504    7.3244 C   0  0  0  0  0  0  0  0  0  0  0  0
    2.2821  -14.9176    6.7154 C   0  0  0  0  0  0  0  0  0  0  0  0
    2.7907  -13.6802    6.5556 N   0  0  0  0  0  0  0  0  0  0  0  0
    3.9993  -13.4422    7.1059 C   0  0  0  0  0  0  0  0  0  0  0  0
    4.9435  -13.5033   10.0581 C   0  0  0  0  0  0  0  0  0  0  0  0
    5.8496  -14.3291   11.5616 C   0  0  0  0  0  0  0  0  0  0  0  0
    8.1291  -10.4344   15.0880 H   0  0  0  0  0  0  0  0  0  0  0  0
    6.1385  -10.2572   14.3859 H   0  0  0  0  0  0  0  0  0  0  0  0
    6.2063   -7.7056   13.9272 H   0  0  0  0  0  0  0  0  0  0  0  0
    6.6138   -7.7987   15.4818 H   0  0  0  0  0  0  0  0  0  0  0  0
    7.2867   -3.0470   15.6461 H   0  0  0  0  0  0  0  0  0  0  0  0
    9.9856   -2.9632   15.0570 H   0  0  0  0  0  0  0  0  0  0  0  0
   10.0869   -5.2646   15.2909 H   0  0  0  0  0  0  0  0  0  0  0  0
    8.3773  -13.3784   10.5865 H   0  0  0  0  0  0  0  0  0  0  0  0
    7.6829  -14.7951   10.8262 H   0  0  0  0  0  0  0  0  0  0  0  0
    7.3854  -15.0884    8.8029 H   0  0  0  0  0  0  0  0  0  0  0  0
    4.7561  -16.4786    8.3838 H   0  0  0  0  0  0  0  0  0  0  0  0
    2.5205  -16.9339    7.4072 H   0  0  0  0  0  0  0  0  0  0  0  0
    1.2885  -15.0704    6.3027 H   0  0  0  0  0  0  0  0  0  0  0  0
    4.2673  -12.3937    7.1255 H   0  0  0  0  0  0  0  0  0  0  0  0
    4.0054  -13.9760    9.7153 H   0  0  0  0  0  0  0  0  0  0  0  0
    4.4135  -12.5773   10.2530 H   0  0  0  0  0  0  0  0  0  0  0  0
    5.3536  -15.0321   12.2590 H   0  0  0  0  0  0  0  0  0  0  0  0
    5.9777  -15.1457   10.8548 H   0  0  0  0  0  0  0  0  0  0  0  0
  1  2  2  0
  2  3  1  0
  3  4  1  0
  4  5  1  0
  5  6  2  0
  6  7  1  0
  7  8  2  0
  8  9  1  0
  2 10  1  0
 10 11  1  0
 11 12  1  0
 12 13  2  0
 13 14  1  0
 14 15  2  0
 15 16  1  0
 16 17  2  0
 17 18  1  0
 18 19  2  0
 13 20  1  0
 20 21  1  0
  9  5  1  0
 21 10  1  0
 19 14  1  0
  3 22  1  0
  3 23  1  0
  4 24  1  0
  4 25  1  0
  7 26  1  0
  8 27  1  0
  9 28  1  0
 11 29  1  0
 11 30  1  0
 12 31  1  0
 15 32  1  0
 16 33  1  0
 17 34  1  0
 19 35  1  0
 20 36  1  0
 20 37  1  0
 21 38  1  0
 21 39  1  0
M  END
>  <Energy>  (367) 
1122.3073172476413

>  <compound_id>  (367) 
58902

>  <target_id>  (367) 
1

>  <reference_id>  (367) 
85

>  <inspiration_ids>  (367) 
[85, 80]

>  <energy_score>  (367) 
1083.2289498026666

>  <distance_score>  (367) 
4.607174810754385

>  <path>  (367) 
/opt/xchem-fragalysis-2/maxwin/BulkDock/SCRATCH/511024/C58902-P85/C58902-P85.minimised.mol

>  <scratch_subdir>  (367) 
/opt/xchem-fragalysis-2/maxwin/BulkDock/SCRATCH/511024/C58902-P85

>  <fragmenstein_runtime>  (367) 
8.025393962860107

>  <fragmenstein_outcome>  (367) 
too moved

>  <fragmenstein_mode>  (367) 
expansion

>  <fragmenstein_error>  (367) 


$$$$
C58902-P80
     RDKit          3D

 39 41  0  0  0  0  0  0  0  0999 V2000
    6.2640  -13.4214   14.1210 O   0  0  0  0  0  0  0  0  0  0  0  0
    6.2688  -12.6175   13.2609 C   0  0  0  0  0  0  0  0  0  0  0  0
    6.0207  -10.5701   13.7884 C   0  0  0  0  0  0  0  0  0  0  0  0
    6.7220   -8.4806   13.8542 C   0  0  0  0  0  0  0  0  0  0  0  0
    8.2442   -7.1796   14.4763 C   0  0  0  0  0  0  0  0  0  0  0  0
    8.7093   -5.7414   14.2793 N   0  0  0  0  0  0  0  0  0  0  0  0
   10.4051   -5.1211   14.5677 C   0  0  0  0  0  0  0  0  0  0  0  0
   10.8601   -6.5139   15.3542 C   0  0  0  0  0  0  0  0  0  0  0  0
    9.6616   -7.5818   15.1488 N   0  0  0  0  0  0  0  0  0  0  0  0
    6.6568  -13.3548   11.6145 N   0  0  0  0  0  0  0  0  0  0  0  0
    5.1019  -13.9388   10.6468 C   0  0  0  0  0  0  0  0  0  0  0  0
    5.0770  -15.4252    9.8716 C   0  0  0  0  0  0  0  0  0  0  0  0
    6.1775  -15.9596    9.3393 C   0  0  0  0  0  0  0  0  0  0  0  0
    6.2205  -17.1306    8.4502 C   0  0  0  0  0  0  0  0  0  0  0  0
    7.4125  -17.7757    8.1327 C   0  0  0  0  0  0  0  0  0  0  0  0
    7.4151  -18.8435    7.2352 C   0  0  0  0  0  0  0  0  0  0  0  0
    6.2218  -19.2310    6.6554 C   0  0  0  0  0  0  0  0  0  0  0  0
    5.0516  -18.6237    6.9054 N   0  0  0  0  0  0  0  0  0  0  0  0
    5.0754  -17.6121    7.8029 C   0  0  0  0  0  0  0  0  0  0  0  0
    7.2900  -15.0520    9.6964 C   0  0  0  0  0  0  0  0  0  0  0  0
    7.0050  -14.5317   11.2350 C   0  0  0  0  0  0  0  0  0  0  0  0
    5.2920  -10.6733   14.5903 H   0  0  0  0  0  0  0  0  0  0  0  0
    5.0603  -10.5907   13.2435 H   0  0  0  0  0  0  0  0  0  0  0  0
    5.8313   -7.8610   13.9125 H   0  0  0  0  0  0  0  0  0  0  0  0
    7.0322   -8.1816   12.8069 H   0  0  0  0  0  0  0  0  0  0  0  0
   10.6742   -4.0697   14.5437 H   0  0  0  0  0  0  0  0  0  0  0  0
   11.7174   -6.6848   16.0174 H   0  0  0  0  0  0  0  0  0  0  0  0
    9.7199   -8.5701   15.4032 H   0  0  0  0  0  0  0  0  0  0  0  0
    4.9701  -13.4334    9.6777 H   0  0  0  0  0  0  0  0  0  0  0  0
    4.2450  -13.3964   11.0277 H   0  0  0  0  0  0  0  0  0  0  0  0
    4.0971  -15.8377    9.6225 H   0  0  0  0  0  0  0  0  0  0  0  0
    8.3588  -17.4733    8.5717 H   0  0  0  0  0  0  0  0  0  0  0  0
    8.3368  -19.3645    6.9968 H   0  0  0  0  0  0  0  0  0  0  0  0
    6.1783  -20.0611    5.9557 H   0  0  0  0  0  0  0  0  0  0  0  0
    4.0935  -17.1758    7.9579 H   0  0  0  0  0  0  0  0  0  0  0  0
    7.4361  -14.2146    9.0073 H   0  0  0  0  0  0  0  0  0  0  0  0
    8.2337  -15.6082    9.6524 H   0  0  0  0  0  0  0  0  0  0  0  0
    6.1610  -14.7176   11.8852 H   0  0  0  0  0  0  0  0  0  0  0  0
    7.8956  -14.0099   11.1518 H   0  0  0  0  0  0  0  0  0  0  0  0
  1  2  2  0
  2  3  1  0
  3  4  1  0
  4  5  1  0
  5  6  2  0
  6  7  1  0
  7  8  2  0
  8  9  1  0
  2 10  1  0
 10 11  1  0
 11 12  1  0
 12 13  2  0
 13 14  1  0
 14 15  2  0
 15 16  1  0
 16 17  2  0
 17 18  1  0
 18 19  2  0
 13 20  1  0
 20 21  1  0
  9  5  1  0
 21 10  1  0
 19 14  1  0
  3 22  1  0
  3 23  1  0
  4 24  1  0
  4 25  1  0
  7 26  1  0
  8 27  1  0
  9 28  1  0
 11 29  1  0
 11 30  1  0
 12 31  1  0
 15 32  1  0
 16 33  1  0
 17 34  1  0
 19 35  1  0
 20 36  1  0
 20 37  1  0
 21 38  1  0
 21 39  1  0
M  END
>  <Energy>  (368) 
909.85531766410668

>  <compound_id>  (368) 
58902

>  <target_id>  (368) 
1

>  <reference_id>  (368) 
80

>  <inspiration_ids>  (368) 
[85, 80]

>  <energy_score>  (368) 
870.7769502191228

>  <distance_score>  (368) 
5.8226445196816705

>  <path>  (368) 
/opt/xchem-fragalysis-2/maxwin/BulkDock/SCRATCH/511024/C58902-P80/C58902-P80.minimised.mol

>  <scratch_subdir>  (368) 
/opt/xchem-fragalysis-2/maxwin/BulkDock/SCRATCH/511024/C58902-P80

>  <fragmenstein_runtime>  (368) 
15.154408931732178

>  <fragmenstein_outcome>  (368) 
too moved

>  <fragmenstein_mode>  (368) 
expansion

>  <fragmenstein_error>  (368) 


$$$$
C54434-P85
     RDKit          3D

 37 39  0  0  0  0  0  0  0  0999 V2000
    6.5123  -13.1717   14.2218 O   0  0  0  0  0  0  0  0  0  0  0  0
    6.3315  -12.4549   13.3115 C   0  0  0  0  0  0  0  0  0  0  0  0
    6.2588  -10.4138   13.9606 C   0  0  0  0  0  0  0  0  0  0  0  0
    6.7819   -8.6236   14.3146 C   0  0  0  0  0  0  0  0  0  0  0  0
    8.0505   -7.4133   15.1815 C   0  0  0  0  0  0  0  0  0  0  0  0
    7.8905   -6.1965   15.7156 C   0  0  0  0  0  0  0  0  0  0  0  0
    9.1173   -4.9138   15.1099 N   0  0  0  0  0  0  0  0  0  0  0  0
   10.8000   -5.6498   15.2152 C   0  0  0  0  0  0  0  0  0  0  0  0
    9.8533   -7.1527   15.2757 N   0  0  0  0  0  0  0  0  0  0  0  0
    5.9986  -13.5080   11.6930 N   0  0  0  0  0  0  0  0  0  0  0  0
    7.2117  -14.0891   10.5089 C   0  0  0  0  0  0  0  0  0  0  0  0
    6.3454  -14.0490    9.0859 C   0  0  0  0  0  0  0  0  0  0  0  0
    5.3310  -14.8866    8.8997 C   0  0  0  0  0  0  0  0  0  0  0  0
    4.2014  -14.6947    7.9809 C   0  0  0  0  0  0  0  0  0  0  0  0
    3.2741  -15.6993    7.7015 C   0  0  0  0  0  0  0  0  0  0  0  0
    2.1443  -15.4156    6.9299 C   0  0  0  0  0  0  0  0  0  0  0  0
    1.9728  -14.1279    6.4481 C   0  0  0  0  0  0  0  0  0  0  0  0
    2.8491  -13.1339    6.6730 N   0  0  0  0  0  0  0  0  0  0  0  0
    3.9154  -13.4360    7.4446 C   0  0  0  0  0  0  0  0  0  0  0  0
    5.3469  -15.8254   10.0140 C   0  0  0  0  0  0  0  0  0  0  0  0
    5.8490  -14.8103   11.4953 C   0  0  0  0  0  0  0  0  0  0  0  0
    5.1467  -10.4430   13.9286 H   0  0  0  0  0  0  0  0  0  0  0  0
    5.9308   -7.9355   14.2505 H   0  0  0  0  0  0  0  0  0  0  0  0
    7.0616   -5.7770   16.2411 H   0  0  0  0  0  0  0  0  0  0  0  0
    9.0789   -4.0962   15.6693 H   0  0  0  0  0  0  0  0  0  0  0  0
   11.5093   -5.2662   15.9525 H   0  0  0  0  0  0  0  0  0  0  0  0
    8.0940  -13.4885   10.5444 H   0  0  0  0  0  0  0  0  0  0  0  0
    7.6705  -15.0442   10.3289 H   0  0  0  0  0  0  0  0  0  0  0  0
    6.3778  -13.1697    8.4648 H   0  0  0  0  0  0  0  0  0  0  0  0
    3.4030  -16.7105    8.0765 H   0  0  0  0  0  0  0  0  0  0  0  0
    1.4180  -16.1884    6.6985 H   0  0  0  0  0  0  0  0  0  0  0  0
    1.1112  -13.8579    5.8453 H   0  0  0  0  0  0  0  0  0  0  0  0
    4.5329  -12.5708    7.6581 H   0  0  0  0  0  0  0  0  0  0  0  0
    4.3817  -16.3259   10.1933 H   0  0  0  0  0  0  0  0  0  0  0  0
    6.0190  -16.6524    9.7515 H   0  0  0  0  0  0  0  0  0  0  0  0
    5.9213  -14.9040   12.5757 H   0  0  0  0  0  0  0  0  0  0  0  0
    5.0532  -15.3961   12.0849 H   0  0  0  0  0  0  0  0  0  0  0  0
  1  2  2  0
  2  3  1  0
  3  4  2  3
  4  5  1  0
  5  6  2  0
  6  7  1  0
  7  8  1  0
  8  9  2  0
  2 10  1  0
 10 11  1  0
 11 12  1  0
 12 13  2  0
 13 14  1  0
 14 15  2  0
 15 16  1  0
 16 17  2  0
 17 18  1  0
 18 19  2  0
 13 20  1  0
 20 21  1  0
  9  5  1  0
 21 10  1  0
 19 14  1  0
  3 22  1  0
  4 23  1  0
  6 24  1  0
  7 25  1  0
  8 26  1  0
 11 27  1  0
 11 28  1  0
 12 29  1  0
 15 30  1  0
 16 31  1  0
 17 32  1  0
 19 33  1  0
 20 34  1  0
 20 35  1  0
 21 36  1  0
 21 37  1  0
M  END
>  <Energy>  (369) 
1130.0750297745353

>  <compound_id>  (369) 
54434

>  <target_id>  (369) 
1

>  <reference_id>  (369) 
85

>  <inspiration_ids>  (369) 
[85, 80]

>  <energy_score>  (369) 
1085.992052964265

>  <distance_score>  (369) 
4.698695904166584

>  <path>  (369) 
/opt/xchem-fragalysis-2/maxwin/BulkDock/SCRATCH/511024/C54434-P85/C54434-P85.minimised.mol

>  <scratch_subdir>  (369) 
/opt/xchem-fragalysis-2/maxwin/BulkDock/SCRATCH/511024/C54434-P85

>  <fragmenstein_runtime>  (369) 
5.330696105957031

>  <fragmenstein_outcome>  (369) 
too moved

>  <fragmenstein_mode>  (369) 
expansion

>  <fragmenstein_error>  (369) 


$$$$
C54434-P80
     RDKit          3D

 37 39  0  0  0  0  0  0  0  0999 V2000
    9.4046  -11.9795    6.8452 O   0  0  0  0  0  0  0  0  0  0  0  0
    9.1187  -12.3651    7.9561 C   0  0  0  0  0  0  0  0  0  0  0  0
    9.2823  -11.1657    9.0106 C   0  0  0  0  0  0  0  0  0  0  0  0
   10.0719  -11.0137   10.1486 C   0  0  0  0  0  0  0  0  0  0  0  0
   10.9778   -9.9077   11.4899 C   0  0  0  0  0  0  0  0  0  0  0  0
   12.2218   -9.1353   11.4764 C   0  0  0  0  0  0  0  0  0  0  0  0
   12.1164   -7.6357   10.7204 N   0  0  0  0  0  0  0  0  0  0  0  0
   10.8960   -7.5533   10.0262 C   0  0  0  0  0  0  0  0  0  0  0  0
    9.8921   -8.4968   10.6367 N   0  0  0  0  0  0  0  0  0  0  0  0
    8.5986  -13.6180    8.3923 N   0  0  0  0  0  0  0  0  0  0  0  0
    9.7975  -14.6399    8.7674 C   0  0  0  0  0  0  0  0  0  0  0  0
    9.5234  -16.1599    9.1186 C   0  0  0  0  0  0  0  0  0  0  0  0
    8.3213  -16.7301    8.9294 C   0  0  0  0  0  0  0  0  0  0  0  0
    7.8046  -18.1000    9.0768 C   0  0  0  0  0  0  0  0  0  0  0  0
    6.4166  -18.3456    9.1924 C   0  0  0  0  0  0  0  0  0  0  0  0
    5.9110  -19.6362    9.1717 C   0  0  0  0  0  0  0  0  0  0  0  0
    6.8175  -20.6638    9.0385 C   0  0  0  0  0  0  0  0  0  0  0  0
    8.1534  -20.4823    8.9371 N   0  0  0  0  0  0  0  0  0  0  0  0
    8.6176  -19.2112    8.9628 C   0  0  0  0  0  0  0  0  0  0  0  0
    7.3514  -15.7815    8.3833 C   0  0  0  0  0  0  0  0  0  0  0  0
    8.1585  -14.7573    7.6422 C   0  0  0  0  0  0  0  0  0  0  0  0
    8.6759  -10.4687    8.4951 H   0  0  0  0  0  0  0  0  0  0  0  0
   10.4413  -11.9262   10.1054 H   0  0  0  0  0  0  0  0  0  0  0  0
   13.1934   -9.5272   11.1220 H   0  0  0  0  0  0  0  0  0  0  0  0
   12.9565   -7.1266   10.4955 H   0  0  0  0  0  0  0  0  0  0  0  0
   10.7268   -6.8990    9.1805 H   0  0  0  0  0  0  0  0  0  0  0  0
   10.5895  -14.5718    8.0056 H   0  0  0  0  0  0  0  0  0  0  0  0
   10.2038  -14.2864    9.7129 H   0  0  0  0  0  0  0  0  0  0  0  0
   10.3741  -16.7129    9.5078 H   0  0  0  0  0  0  0  0  0  0  0  0
    5.6986  -17.5351    9.2902 H   0  0  0  0  0  0  0  0  0  0  0  0
    4.8489  -19.8343    9.2585 H   0  0  0  0  0  0  0  0  0  0  0  0
    6.4905  -21.6999    9.0163 H   0  0  0  0  0  0  0  0  0  0  0  0
    9.6943  -19.1238    8.8489 H   0  0  0  0  0  0  0  0  0  0  0  0
    6.6969  -16.2869    7.6671 H   0  0  0  0  0  0  0  0  0  0  0  0
    6.7796  -15.3553    9.2143 H   0  0  0  0  0  0  0  0  0  0  0  0
    7.5137  -14.2527    6.9204 H   0  0  0  0  0  0  0  0  0  0  0  0
    8.9032  -15.1559    6.9246 H   0  0  0  0  0  0  0  0  0  0  0  0
  1  2  2  0
  2  3  1  0
  3  4  2  3
  4  5  1  0
  5  6  2  0
  6  7  1  0
  7  8  1  0
  8  9  2  0
  2 10  1  0
 10 11  1  0
 11 12  1  0
 12 13  2  0
 13 14  1  0
 14 15  2  0
 15 16  1  0
 16 17  2  0
 17 18  1  0
 18 19  2  0
 13 20  1  0
 20 21  1  0
  9  5  1  0
 21 10  1  0
 19 14  1  0
  3 22  1  0
  4 23  1  0
  6 24  1  0
  7 25  1  0
  8 26  1  0
 11 27  1  0
 11 28  1  0
 12 29  1  0
 15 30  1  0
 16 31  1  0
 17 32  1  0
 19 33  1  0
 20 34  1  0
 20 35  1  0
 21 36  1  0
 21 37  1  0
M  END
>  <Energy>  (370) 
406.87595334183999

>  <compound_id>  (370) 
54434

>  <target_id>  (370) 
1

>  <reference_id>  (370) 
80

>  <inspiration_ids>  (370) 
[85, 80]

>  <energy_score>  (370) 
362.792976531562

>  <distance_score>  (370) 
7.841193610375649

>  <path>  (370) 
/opt/xchem-fragalysis-2/maxwin/BulkDock/SCRATCH/511024/C54434-P80/C54434-P80.minimised.mol

>  <scratch_subdir>  (370) 
/opt/xchem-fragalysis-2/maxwin/BulkDock/SCRATCH/511024/C54434-P80

>  <fragmenstein_runtime>  (370) 
11.83322525024414

>  <fragmenstein_outcome>  (370) 
too moved

>  <fragmenstein_mode>  (370) 
expansion

>  <fragmenstein_error>  (370) 


$$$$
C58904-P85
     RDKit          3D

 31 33  0  0  0  0  0  0  0  0999 V2000
    4.6126  -11.5423   14.8805 O   0  0  0  0  0  0  0  0  0  0  0  0
    5.3407  -11.0587   14.0794 C   0  0  0  0  0  0  0  0  0  0  0  0
    5.1708   -9.1295   14.1903 C   0  0  0  0  0  0  0  0  0  0  0  0
    6.1146   -7.7658   13.9220 N   0  0  0  0  0  0  0  0  0  0  0  0
    7.3685   -7.2901   15.2118 C   0  0  0  0  0  0  0  0  0  0  0  0
    6.4097   -6.7843   15.9058 C   0  0  0  0  0  0  0  0  0  0  0  0
    6.4621   -8.0917   14.7200 N   0  0  0  0  0  0  0  0  0  0  0  0
    6.4019  -12.4400   13.2613 N   0  0  0  0  0  0  0  0  0  0  0  0
    6.5155  -13.8078   13.5131 C   0  0  0  0  0  0  0  0  0  0  0  0
    5.4407  -15.2394   12.5802 C   0  0  0  0  0  0  0  0  0  0  0  0
    5.6748  -15.3950   10.6055 C   0  0  0  0  0  0  0  0  0  0  0  0
    6.0179  -14.2052   10.1651 C   0  0  0  0  0  0  0  0  0  0  0  0
    5.3423  -13.8434    8.9310 C   0  0  0  0  0  0  0  0  0  0  0  0
    5.4006  -14.3734    7.6479 C   0  0  0  0  0  0  0  0  0  0  0  0
    4.4655  -13.6743    6.8484 C   0  0  0  0  0  0  0  0  0  0  0  0
    3.8208  -12.8037    7.6809 C   0  0  0  0  0  0  0  0  0  0  0  0
    4.3306  -12.8997    8.9242 O   0  0  0  0  0  0  0  0  0  0  0  0
    6.0830  -13.5627   11.6504 C   0  0  0  0  0  0  0  0  0  0  0  0
    8.3715   -6.9538   14.9943 H   0  0  0  0  0  0  0  0  0  0  0  0
    5.9002   -6.8248   16.8576 H   0  0  0  0  0  0  0  0  0  0  0  0
    7.2415   -8.4909   14.1041 H   0  0  0  0  0  0  0  0  0  0  0  0
    7.1824  -13.9420   14.3814 H   0  0  0  0  0  0  0  0  0  0  0  0
    5.8131  -13.5157   14.1396 H   0  0  0  0  0  0  0  0  0  0  0  0
    4.4657  -15.7354   12.5120 H   0  0  0  0  0  0  0  0  0  0  0  0
    5.4858  -16.0985   13.3437 H   0  0  0  0  0  0  0  0  0  0  0  0
    5.1670  -16.2107   10.0768 H   0  0  0  0  0  0  0  0  0  0  0  0
    6.0651  -15.1625    7.3332 H   0  0  0  0  0  0  0  0  0  0  0  0
    4.2689  -13.7664    5.7973 H   0  0  0  0  0  0  0  0  0  0  0  0
    3.0338  -12.0757    7.5416 H   0  0  0  0  0  0  0  0  0  0  0  0
    7.1823  -13.6138   11.5053 H   0  0  0  0  0  0  0  0  0  0  0  0
    5.0949  -13.1238   11.2999 H   0  0  0  0  0  0  0  0  0  0  0  0
  1  2  2  0
  2  3  1  0
  3  4  2  0
  4  5  1  0
  5  6  2  0
  6  7  1  0
  2  8  1  0
  8  9  1  0
  9 10  1  0
 10 11  1  0
 11 12  2  0
 12 13  1  0
 13 14  2  0
 14 15  1  0
 15 16  2  0
 16 17  1  0
 12 18  1  0
  7  3  1  0
 18  8  1  0
 17 13  1  0
  5 19  1  0
  6 20  1  0
  7 21  1  0
  9 22  1  0
  9 23  1  0
 10 24  1  0
 10 25  1  0
 11 26  1  0
 14 27  1  0
 15 28  1  0
 16 29  1  0
 18 30  1  0
 18 31  1  0
M  END
>  <Energy>  (371) 
1280.7768023810045

>  <compound_id>  (371) 
58904

>  <target_id>  (371) 
1

>  <reference_id>  (371) 
85

>  <inspiration_ids>  (371) 
[85, 80]

>  <energy_score>  (371) 
1220.5250593982146

>  <distance_score>  (371) 
6.212949434786915

>  <path>  (371) 
/opt/xchem-fragalysis-2/maxwin/BulkDock/SCRATCH/511024/C58904-P85/C58904-P85.minimised.mol

>  <scratch_subdir>  (371) 
/opt/xchem-fragalysis-2/maxwin/BulkDock/SCRATCH/511024/C58904-P85

>  <fragmenstein_runtime>  (371) 
9.19056224822998

>  <fragmenstein_outcome>  (371) 
too moved

>  <fragmenstein_mode>  (371) 
expansion

>  <fragmenstein_error>  (371) 


$$$$
C58904-P80
     RDKit          3D

 31 33  0  0  0  0  0  0  0  0999 V2000
    8.4378   -8.3934   11.3242 O   0  0  0  0  0  0  0  0  0  0  0  0
    8.9663   -8.5429   10.2790 C   0  0  0  0  0  0  0  0  0  0  0  0
    9.6076   -7.4522    9.7191 C   0  0  0  0  0  0  0  0  0  0  0  0
    9.4526   -5.7472    9.2891 N   0  0  0  0  0  0  0  0  0  0  0  0
   10.9389   -5.0829   10.1087 C   0  0  0  0  0  0  0  0  0  0  0  0
   11.7026   -5.9129   10.8895 C   0  0  0  0  0  0  0  0  0  0  0  0
   11.1239   -7.3387   10.5490 N   0  0  0  0  0  0  0  0  0  0  0  0
    9.2744  -10.1371    9.1797 N   0  0  0  0  0  0  0  0  0  0  0  0
    9.0404  -11.5356    9.3951 C   0  0  0  0  0  0  0  0  0  0  0  0
    9.4037  -12.7981    7.9673 C   0  0  0  0  0  0  0  0  0  0  0  0
    8.5514  -12.6602    6.7420 C   0  0  0  0  0  0  0  0  0  0  0  0
    7.6450  -12.4600    7.6649 C   0  0  0  0  0  0  0  0  0  0  0  0
    7.5839  -14.0477    8.3608 C   0  0  0  0  0  0  0  0  0  0  0  0
    8.2020  -15.2464    7.8326 C   0  0  0  0  0  0  0  0  0  0  0  0
    7.6010  -16.4043    8.3417 C   0  0  0  0  0  0  0  0  0  0  0  0
    6.6607  -15.9126    9.1820 C   0  0  0  0  0  0  0  0  0  0  0  0
    6.8801  -14.5876    9.4576 O   0  0  0  0  0  0  0  0  0  0  0  0
    7.9148  -10.5701    7.9223 C   0  0  0  0  0  0  0  0  0  0  0  0
   10.7118   -4.3047   10.7670 H   0  0  0  0  0  0  0  0  0  0  0  0
   12.5306   -5.8087   11.5507 H   0  0  0  0  0  0  0  0  0  0  0  0
   11.6313   -8.2003   10.6434 H   0  0  0  0  0  0  0  0  0  0  0  0
    9.4829  -11.2098    8.4350 H   0  0  0  0  0  0  0  0  0  0  0  0
    8.2102  -12.2255    9.5724 H   0  0  0  0  0  0  0  0  0  0  0  0
    9.5712  -13.6905    8.5900 H   0  0  0  0  0  0  0  0  0  0  0  0
   10.2888  -12.9257    7.3784 H   0  0  0  0  0  0  0  0  0  0  0  0
    8.6810  -13.4795    6.0525 H   0  0  0  0  0  0  0  0  0  0  0  0
    8.9706  -15.2682    7.0752 H   0  0  0  0  0  0  0  0  0  0  0  0
    7.7538  -17.4301    8.0427 H   0  0  0  0  0  0  0  0  0  0  0  0
    5.7953  -16.3457    9.6668 H   0  0  0  0  0  0  0  0  0  0  0  0
    6.9692  -10.0908    8.1814 H   0  0  0  0  0  0  0  0  0  0  0  0
    8.2744  -10.2596    6.9251 H   0  0  0  0  0  0  0  0  0  0  0  0
  1  2  2  0
  2  3  1  0
  3  4  2  0
  4  5  1  0
  5  6  2  0
  6  7  1  0
  2  8  1  0
  8  9  1  0
  9 10  1  0
 10 11  1  0
 11 12  2  0
 12 13  1  0
 13 14  2  0
 14 15  1  0
 15 16  2  0
 16 17  1  0
 12 18  1  0
  7  3  1  0
 18  8  1  0
 17 13  1  0
  5 19  1  0
  6 20  1  0
  7 21  1  0
  9 22  1  0
  9 23  1  0
 10 24  1  0
 10 25  1  0
 11 26  1  0
 14 27  1  0
 15 28  1  0
 16 29  1  0
 18 30  1  0
 18 31  1  0
M  END
>  <Energy>  (372) 
887.35653486282933

>  <compound_id>  (372) 
58904

>  <target_id>  (372) 
1

>  <reference_id>  (372) 
80

>  <inspiration_ids>  (372) 
[85, 80]

>  <energy_score>  (372) 
827.1047918800308

>  <distance_score>  (372) 
7.389435822387586

>  <path>  (372) 
/opt/xchem-fragalysis-2/maxwin/BulkDock/SCRATCH/511024/C58904-P80/C58904-P80.minimised.mol

>  <scratch_subdir>  (372) 
/opt/xchem-fragalysis-2/maxwin/BulkDock/SCRATCH/511024/C58904-P80

>  <fragmenstein_runtime>  (372) 
7.632071495056152

>  <fragmenstein_outcome>  (372) 
too moved

>  <fragmenstein_mode>  (372) 
expansion

>  <fragmenstein_error>  (372) 


$$$$
C58905-P85
     RDKit          3D

 37 40  0  0  0  0  0  0  0  0999 V2000
    9.4305  -15.2650   19.3487 O   0  0  0  0  0  0  0  0  0  0  0  0
   10.3926  -14.9505   18.6993 C   0  0  0  0  0  0  0  0  0  0  0  0
   11.4796  -14.1188   19.3008 C   0  0  0  0  0  0  0  0  0  0  0  0
   12.5025  -13.5961   18.6210 N   0  0  0  0  0  0  0  0  0  0  0  0
   12.9635  -12.5320   19.3560 C   0  0  0  0  0  0  0  0  0  0  0  0
   12.2196  -12.3788   20.4970 C   0  0  0  0  0  0  0  0  0  0  0  0
   11.3202  -13.4140   20.4789 N   0  0  0  0  0  0  0  0  0  0  0  0
   10.6860  -15.1537   17.3264 N   0  0  0  0  0  0  0  0  0  0  0  0
   10.2082  -13.9920   16.5237 C   0  0  0  0  0  0  0  0  0  0  0  0
    9.0515  -13.4097   15.7016 C   0  0  0  0  0  0  0  0  0  0  0  0
    7.9961  -14.1665   14.9643 C   0  0  0  0  0  0  0  0  0  0  0  0
    7.1711  -13.8203   13.2748 C   0  0  0  0  0  0  0  0  0  0  0  0
    6.3276  -12.8744   13.2040 C   0  0  0  0  0  0  0  0  0  0  0  0
    6.1077  -14.1889   12.1013 N   0  0  0  0  0  0  0  0  0  0  0  0
    6.0939  -14.0712   10.7947 C   0  0  0  0  0  0  0  0  0  0  0  0
    5.4704  -14.5238    9.6951 N   0  0  0  0  0  0  0  0  0  0  0  0
    6.1536  -15.2679    8.8695 C   0  0  0  0  0  0  0  0  0  0  0  0
    7.4792  -15.4007    9.0574 C   0  0  0  0  0  0  0  0  0  0  0  0
    8.0984  -14.5423   10.0189 C   0  0  0  0  0  0  0  0  0  0  0  0
    7.3605  -13.9833   11.3121 C   0  0  0  0  0  0  0  0  0  0  0  0
    8.4848  -15.8479   15.5923 C   0  0  0  0  0  0  0  0  0  0  0  0
    9.9424  -15.9281   16.2586 C   0  0  0  0  0  0  0  0  0  0  0  0
   13.7998  -11.9344   19.0194 H   0  0  0  0  0  0  0  0  0  0  0  0
   12.2541  -11.6622   21.3054 H   0  0  0  0  0  0  0  0  0  0  0  0
   10.5578  -13.5675   21.1255 H   0  0  0  0  0  0  0  0  0  0  0  0
   11.0755  -13.9815   15.8841 H   0  0  0  0  0  0  0  0  0  0  0  0
   10.4442  -13.1188   17.1533 H   0  0  0  0  0  0  0  0  0  0  0  0
    9.2876  -12.3557   15.5146 H   0  0  0  0  0  0  0  0  0  0  0  0
    5.6099  -12.4161   13.8743 H   0  0  0  0  0  0  0  0  0  0  0  0
    5.6460  -15.0100   12.4961 H   0  0  0  0  0  0  0  0  0  0  0  0
    5.6043  -15.7585    8.0763 H   0  0  0  0  0  0  0  0  0  0  0  0
    8.0450  -16.0801    8.4280 H   0  0  0  0  0  0  0  0  0  0  0  0
    9.1947  -14.4466    9.9179 H   0  0  0  0  0  0  0  0  0  0  0  0
    7.7113  -16.2394   16.2673 H   0  0  0  0  0  0  0  0  0  0  0  0
    8.5852  -16.6115   14.8082 H   0  0  0  0  0  0  0  0  0  0  0  0
   10.6785  -16.0941   15.4516 H   0  0  0  0  0  0  0  0  0  0  0  0
    9.9077  -16.9225   16.7334 H   0  0  0  0  0  0  0  0  0  0  0  0
  1  2  2  0
  2  3  1  0
  3  4  2  0
  4  5  1  0
  5  6  2  0
  6  7  1  0
  2  8  1  0
  8  9  1  0
  9 10  1  0
 10 11  2  0
 11 12  1  0
 12 13  2  0
 13 14  1  0
 14 15  1  0
 15 16  2  0
 16 17  1  0
 17 18  2  0
 18 19  1  0
 19 20  2  0
 11 21  1  0
 21 22  1  0
  7  3  1  0
 22  8  1  0
 20 12  1  0
 20 15  1  0
  5 23  1  0
  6 24  1  0
  7 25  1  0
  9 26  1  0
  9 27  1  0
 10 28  1  0
 13 29  1  0
 14 30  1  0
 17 31  1  0
 18 32  1  0
 19 33  1  0
 21 34  1  0
 21 35  1  0
 22 36  1  0
 22 37  1  0
M  END
>  <Energy>  (373) 
603.3432139228737

>  <compound_id>  (373) 
58905

>  <target_id>  (373) 
1

>  <reference_id>  (373) 
85

>  <inspiration_ids>  (373) 
[85, 80]

>  <energy_score>  (373) 
526.2605040352955

>  <distance_score>  (373) 
9.627678759094582

>  <path>  (373) 
/opt/xchem-fragalysis-2/maxwin/BulkDock/SCRATCH/511024/C58905-P85/C58905-P85.minimised.mol

>  <scratch_subdir>  (373) 
/opt/xchem-fragalysis-2/maxwin/BulkDock/SCRATCH/511024/C58905-P85

>  <fragmenstein_runtime>  (373) 
8.78591275215149

>  <fragmenstein_outcome>  (373) 
too moved

>  <fragmenstein_mode>  (373) 
expansion

>  <fragmenstein_error>  (373) 


$$$$
C58905-P80
     RDKit          3D

 37 40  0  0  0  0  0  0  0  0999 V2000
    5.6031   -8.7173    6.4610 O   0  0  0  0  0  0  0  0  0  0  0  0
    4.7043   -8.6888    7.3271 C   0  0  0  0  0  0  0  0  0  0  0  0
    5.1662   -8.0526    8.4559 C   0  0  0  0  0  0  0  0  0  0  0  0
    5.0417   -6.7032    8.3045 N   0  0  0  0  0  0  0  0  0  0  0  0
    6.0278   -6.0926    8.8460 C   0  0  0  0  0  0  0  0  0  0  0  0
    6.5478   -7.1321    9.5255 C   0  0  0  0  0  0  0  0  0  0  0  0
    6.4172   -8.1790    8.7144 N   0  0  0  0  0  0  0  0  0  0  0  0
    2.8930   -9.2423    7.1281 N   0  0  0  0  0  0  0  0  0  0  0  0
    2.0895  -10.8833    7.4254 C   0  0  0  0  0  0  0  0  0  0  0  0
    1.9378  -11.8661    5.6841 C   0  0  0  0  0  0  0  0  0  0  0  0
    2.1481  -11.3338    4.3616 C   0  0  0  0  0  0  0  0  0  0  0  0
    2.8586  -10.2064    3.0090 C   0  0  0  0  0  0  0  0  0  0  0  0
    3.3039   -8.8045    3.2766 C   0  0  0  0  0  0  0  0  0  0  0  0
    3.3855   -7.8270    2.1399 N   0  0  0  0  0  0  0  0  0  0  0  0
    2.7460   -8.0366    1.0188 C   0  0  0  0  0  0  0  0  0  0  0  0
    2.6763   -7.1647   -0.0021 N   0  0  0  0  0  0  0  0  0  0  0  0
    2.5757   -7.7715   -1.1965 C   0  0  0  0  0  0  0  0  0  0  0  0
    2.6589   -9.1232   -1.4155 C   0  0  0  0  0  0  0  0  0  0  0  0
    2.7286   -9.9267   -0.2906 C   0  0  0  0  0  0  0  0  0  0  0  0
    2.5384   -9.3891    1.1605 C   0  0  0  0  0  0  0  0  0  0  0  0
    1.3409  -10.5354    5.3236 C   0  0  0  0  0  0  0  0  0  0  0  0
    2.2157   -9.6573    5.9992 C   0  0  0  0  0  0  0  0  0  0  0  0
    6.2120   -5.0316    8.7678 H   0  0  0  0  0  0  0  0  0  0  0  0
    7.3533   -7.2900   10.2014 H   0  0  0  0  0  0  0  0  0  0  0  0
    7.0192   -8.9741    8.4842 H   0  0  0  0  0  0  0  0  0  0  0  0
    1.1542  -10.5006    7.6890 H   0  0  0  0  0  0  0  0  0  0  0  0
    2.6783  -11.3695    8.2253 H   0  0  0  0  0  0  0  0  0  0  0  0
    1.3556  -12.8119    5.7500 H   0  0  0  0  0  0  0  0  0  0  0  0
    3.6221   -8.3406    4.1937 H   0  0  0  0  0  0  0  0  0  0  0  0
    3.8379   -6.9658    2.3523 H   0  0  0  0  0  0  0  0  0  0  0  0
    2.4924   -7.0907   -2.0387 H   0  0  0  0  0  0  0  0  0  0  0  0
    2.6852   -9.5445   -2.4097 H   0  0  0  0  0  0  0  0  0  0  0  0
    2.8806  -10.9985   -0.4145 H   0  0  0  0  0  0  0  0  0  0  0  0
    0.9741   -9.7220    4.8650 H   0  0  0  0  0  0  0  0  0  0  0  0
    0.4160  -10.9142    5.8964 H   0  0  0  0  0  0  0  0  0  0  0  0
    2.5048   -8.9838    5.2377 H   0  0  0  0  0  0  0  0  0  0  0  0
    1.2839   -9.1287    6.4010 H   0  0  0  0  0  0  0  0  0  0  0  0
  1  2  2  0
  2  3  1  0
  3  4  2  0
  4  5  1  0
  5  6  2  0
  6  7  1  0
  2  8  1  0
  8  9  1  0
  9 10  1  0
 10 11  2  0
 11 12  1  0
 12 13  2  0
 13 14  1  0
 14 15  1  0
 15 16  2  0
 16 17  1  0
 17 18  2  0
 18 19  1  0
 19 20  2  0
 11 21  1  0
 21 22  1  0
  7  3  1  0
 22  8  1  0
 20 12  1  0
 20 15  1  0
  5 23  1  0
  6 24  1  0
  7 25  1  0
  9 26  1  0
  9 27  1  0
 10 28  1  0
 13 29  1  0
 14 30  1  0
 17 31  1  0
 18 32  1  0
 19 33  1  0
 21 34  1  0
 21 35  1  0
 22 36  1  0
 22 37  1  0
M  END
>  <Energy>  (374) 
901.39481155982912

>  <compound_id>  (374) 
58905

>  <target_id>  (374) 
1

>  <reference_id>  (374) 
80

>  <inspiration_ids>  (374) 
[85, 80]

>  <energy_score>  (374) 
824.3121016722492

>  <distance_score>  (374) 
9.246986263458354

>  <path>  (374) 
/opt/xchem-fragalysis-2/maxwin/BulkDock/SCRATCH/511024/C58905-P80/C58905-P80.minimised.mol

>  <scratch_subdir>  (374) 
/opt/xchem-fragalysis-2/maxwin/BulkDock/SCRATCH/511024/C58905-P80

>  <fragmenstein_runtime>  (374) 
10.684816837310791

>  <fragmenstein_outcome>  (374) 
too moved

>  <fragmenstein_mode>  (374) 
expansion

>  <fragmenstein_error>  (374) 


$$$$
C58906-P85
     RDKit          3D

 39 41  0  0  0  0  0  0  0  0999 V2000
    8.5091   -9.0404   11.3318 O   0  0  0  0  0  0  0  0  0  0  0  0
    7.2544   -9.2009   12.2679 C   0  0  0  0  0  0  0  0  0  0  0  0
    7.3264   -7.9911   13.9114 N   0  0  0  0  0  0  0  0  0  0  0  0
    8.0874   -8.2224   15.6687 C   0  0  0  0  0  0  0  0  0  0  0  0
    9.9313   -7.4395   15.6186 C   0  0  0  0  0  0  0  0  0  0  0  0
   10.9460   -6.0547   15.3270 C   0  0  0  0  0  0  0  0  0  0  0  0
    9.4805   -4.9359   14.9063 C   0  0  0  0  0  0  0  0  0  0  0  0
    8.4484   -6.6839   14.4970 C   0  0  0  0  0  0  0  0  0  0  0  0
    5.4872  -10.2948   11.1758 N   0  0  0  0  0  0  0  0  0  0  0  0
    4.8067  -12.3772   10.9789 C   0  0  0  0  0  0  0  0  0  0  0  0
    5.2920  -13.5331    9.6230 C   0  0  0  0  0  0  0  0  0  0  0  0
    4.1924  -13.5053    8.6956 C   0  0  0  0  0  0  0  0  0  0  0  0
    4.5142  -12.1590    8.1356 C   0  0  0  0  0  0  0  0  0  0  0  0
    3.3423  -11.8663    7.2644 C   0  0  0  0  0  0  0  0  0  0  0  0
    2.4784  -12.7675    6.8336 N   0  0  0  0  0  0  0  0  0  0  0  0
    1.7144  -12.1495    5.8967 C   0  0  0  0  0  0  0  0  0  0  0  0
    2.1538  -10.8681    5.7368 C   0  0  0  0  0  0  0  0  0  0  0  0
    3.1347  -10.6863    6.6509 N   0  0  0  0  0  0  0  0  0  0  0  0
    5.2127  -10.8851    9.1084 C   0  0  0  0  0  0  0  0  0  0  0  0
    8.4611   -9.2995   15.9912 H   0  0  0  0  0  0  0  0  0  0  0  0
    7.3377   -7.5378   16.2440 H   0  0  0  0  0  0  0  0  0  0  0  0
   10.6143   -7.0374   16.3791 H   0  0  0  0  0  0  0  0  0  0  0  0
   11.8270   -5.6971   15.8740 H   0  0  0  0  0  0  0  0  0  0  0  0
    9.0101   -4.2347   15.6136 H   0  0  0  0  0  0  0  0  0  0  0  0
   10.4256   -4.4200   14.5152 H   0  0  0  0  0  0  0  0  0  0  0  0
    7.8262   -6.3513   15.3596 H   0  0  0  0  0  0  0  0  0  0  0  0
    8.3415   -6.6627   13.3388 H   0  0  0  0  0  0  0  0  0  0  0  0
    3.7487  -12.1449   10.7774 H   0  0  0  0  0  0  0  0  0  0  0  0
    5.1684  -13.1895   11.5558 H   0  0  0  0  0  0  0  0  0  0  0  0
    6.1948  -13.3623    9.0210 H   0  0  0  0  0  0  0  0  0  0  0  0
    5.5468  -14.5302    9.9927 H   0  0  0  0  0  0  0  0  0  0  0  0
    3.2002  -13.5830    9.1300 H   0  0  0  0  0  0  0  0  0  0  0  0
    4.2809  -14.3050    7.9480 H   0  0  0  0  0  0  0  0  0  0  0  0
    5.3299  -12.4321    7.4574 H   0  0  0  0  0  0  0  0  0  0  0  0
    0.9334  -12.6704    5.3602 H   0  0  0  0  0  0  0  0  0  0  0  0
    1.9217  -10.0972    5.0417 H   0  0  0  0  0  0  0  0  0  0  0  0
    3.7500   -9.8953    6.7145 H   0  0  0  0  0  0  0  0  0  0  0  0
    4.1615  -10.7883    9.3983 H   0  0  0  0  0  0  0  0  0  0  0  0
    5.5310  -10.0201    8.5137 H   0  0  0  0  0  0  0  0  0  0  0  0
  1  2  2  0
  2  3  1  0
  3  4  1  0
  4  5  1  0
  5  6  2  0
  6  7  1  0
  7  8  1  0
  2  9  1  0
  9 10  1  0
 10 11  1  0
 11 12  1  0
 12 13  1  0
 13 14  1  0
 14 15  2  0
 15 16  1  0
 16 17  2  0
 17 18  1  0
 13 19  1  0
  8  3  1  0
 19  9  1  0
 18 14  1  0
  4 20  1  0
  4 21  1  0
  5 22  1  0
  6 23  1  0
  7 24  1  0
  7 25  1  0
  8 26  1  0
  8 27  1  0
 10 28  1  0
 10 29  1  0
 11 30  1  0
 11 31  1  0
 12 32  1  0
 12 33  1  0
 13 34  1  0
 16 35  1  0
 17 36  1  0
 18 37  1  0
 19 38  1  0
 19 39  1  0
M  END
>  <Energy>  (375) 
2054.2089698406908

>  <compound_id>  (375) 
58906

>  <target_id>  (375) 
1

>  <reference_id>  (375) 
85

>  <inspiration_ids>  (375) 
[85, 80]

>  <energy_score>  (375) 
2054.9788406254024

>  <distance_score>  (375) 
5.3350840299002975

>  <path>  (375) 
/opt/xchem-fragalysis-2/maxwin/BulkDock/SCRATCH/511024/C58906-P85/C58906-P85.minimised.mol

>  <scratch_subdir>  (375) 
/opt/xchem-fragalysis-2/maxwin/BulkDock/SCRATCH/511024/C58906-P85

>  <fragmenstein_runtime>  (375) 
10.758337497711182

>  <fragmenstein_outcome>  (375) 
too moved

>  <fragmenstein_mode>  (375) 
expansion

>  <fragmenstein_error>  (375) 


$$$$
C58906-P80
     RDKit          3D

 39 41  0  0  0  0  0  0  0  0999 V2000
    7.2703   -8.5735   12.6908 O   0  0  0  0  0  0  0  0  0  0  0  0
    6.7809   -8.6117   13.7618 C   0  0  0  0  0  0  0  0  0  0  0  0
    7.7241   -7.6627   14.9627 N   0  0  0  0  0  0  0  0  0  0  0  0
    7.6156   -5.8496   15.4922 C   0  0  0  0  0  0  0  0  0  0  0  0
    8.8253   -4.2276   15.0826 C   0  0  0  0  0  0  0  0  0  0  0  0
   10.3533   -4.4645   14.8690 C   0  0  0  0  0  0  0  0  0  0  0  0
   10.7859   -6.3097   15.3027 C   0  0  0  0  0  0  0  0  0  0  0  0
    8.9332   -7.0347   14.8942 C   0  0  0  0  0  0  0  0  0  0  0  0
    5.4241   -9.9821   13.9007 N   0  0  0  0  0  0  0  0  0  0  0  0
    4.0117   -9.6875   13.5699 C   0  0  0  0  0  0  0  0  0  0  0  0
    3.0246  -10.2451   11.8041 C   0  0  0  0  0  0  0  0  0  0  0  0
    3.4356  -10.7388   10.4463 C   0  0  0  0  0  0  0  0  0  0  0  0
    3.9083  -11.9040   11.1283 C   0  0  0  0  0  0  0  0  0  0  0  0
    4.2705  -13.4591   10.2056 C   0  0  0  0  0  0  0  0  0  0  0  0
    5.2566  -14.3932   10.2747 N   0  0  0  0  0  0  0  0  0  0  0  0
    4.8051  -15.6132    9.6805 C   0  0  0  0  0  0  0  0  0  0  0  0
    3.5158  -15.4213    9.2288 C   0  0  0  0  0  0  0  0  0  0  0  0
    3.2974  -14.0450    9.4298 N   0  0  0  0  0  0  0  0  0  0  0  0
    4.9509  -11.1560   12.8594 C   0  0  0  0  0  0  0  0  0  0  0  0
    6.6115   -5.7223   15.8702 H   0  0  0  0  0  0  0  0  0  0  0  0
    8.2513   -5.6448   14.5229 H   0  0  0  0  0  0  0  0  0  0  0  0
    8.3660   -3.2438   14.9026 H   0  0  0  0  0  0  0  0  0  0  0  0
   11.1081   -3.7304   14.6250 H   0  0  0  0  0  0  0  0  0  0  0  0
   11.1005   -5.8939   16.3244 H   0  0  0  0  0  0  0  0  0  0  0  0
   11.6601   -6.9057   15.6314 H   0  0  0  0  0  0  0  0  0  0  0  0
    9.4924   -7.8061   14.4972 H   0  0  0  0  0  0  0  0  0  0  0  0
    9.4264   -7.7247   15.5704 H   0  0  0  0  0  0  0  0  0  0  0  0
    4.0479   -8.5865   13.6248 H   0  0  0  0  0  0  0  0  0  0  0  0
    3.5165  -10.3463   14.3097 H   0  0  0  0  0  0  0  0  0  0  0  0
    2.0517  -10.7749   11.9663 H   0  0  0  0  0  0  0  0  0  0  0  0
    2.8896   -9.2522   11.3682 H   0  0  0  0  0  0  0  0  0  0  0  0
    4.1466  -10.1480    9.9139 H   0  0  0  0  0  0  0  0  0  0  0  0
    2.6978  -10.8994    9.7004 H   0  0  0  0  0  0  0  0  0  0  0  0
    2.8839  -12.3131   11.1536 H   0  0  0  0  0  0  0  0  0  0  0  0
    5.4206  -16.4988    9.6349 H   0  0  0  0  0  0  0  0  0  0  0  0
    2.7967  -16.0583    8.7326 H   0  0  0  0  0  0  0  0  0  0  0  0
    2.6348  -13.4724    8.9403 H   0  0  0  0  0  0  0  0  0  0  0  0
    5.8596  -11.7418   13.0748 H   0  0  0  0  0  0  0  0  0  0  0  0
    4.7091  -11.7908   13.7752 H   0  0  0  0  0  0  0  0  0  0  0  0
  1  2  2  0
  2  3  1  0
  3  4  1  0
  4  5  1  0
  5  6  2  0
  6  7  1  0
  7  8  1  0
  2  9  1  0
  9 10  1  0
 10 11  1  0
 11 12  1  0
 12 13  1  0
 13 14  1  0
 14 15  2  0
 15 16  1  0
 16 17  2  0
 17 18  1  0
 13 19  1  0
  8  3  1  0
 19  9  1  0
 18 14  1  0
  4 20  1  0
  4 21  1  0
  5 22  1  0
  6 23  1  0
  7 24  1  0
  7 25  1  0
  8 26  1  0
  8 27  1  0
 10 28  1  0
 10 29  1  0
 11 30  1  0
 11 31  1  0
 12 32  1  0
 12 33  1  0
 13 34  1  0
 16 35  1  0
 17 36  1  0
 18 37  1  0
 19 38  1  0
 19 39  1  0
M  END
>  <Energy>  (376) 
1244.4087482099762

>  <compound_id>  (376) 
58906

>  <target_id>  (376) 
1

>  <reference_id>  (376) 
80

>  <inspiration_ids>  (376) 
[85, 80]

>  <energy_score>  (376) 
1245.1786189946693

>  <distance_score>  (376) 
6.873401597455555

>  <path>  (376) 
/opt/xchem-fragalysis-2/maxwin/BulkDock/SCRATCH/511024/C58906-P80/C58906-P80.minimised.mol

>  <scratch_subdir>  (376) 
/opt/xchem-fragalysis-2/maxwin/BulkDock/SCRATCH/511024/C58906-P80

>  <fragmenstein_runtime>  (376) 
11.26864242553711

>  <fragmenstein_outcome>  (376) 
too moved

>  <fragmenstein_mode>  (376) 
expansion

>  <fragmenstein_error>  (376) 


$$$$
C58907-P85
     RDKit          3D

 24 25  0  0  0  0  0  0  0  0999 V2000
    4.5013  -10.7298   14.1166 O   0  0  0  0  0  0  0  0  0  0  0  0
    4.1369   -9.8480   13.3395 C   0  0  0  0  0  0  0  0  0  0  0  0
    4.7236   -8.1647   13.9568 C   0  0  0  0  0  0  0  0  0  0  0  0
    6.1412   -7.5548   13.7043 N   0  0  0  0  0  0  0  0  0  0  0  0
    7.2557   -7.1762   15.1730 C   0  0  0  0  0  0  0  0  0  0  0  0
    6.3490   -6.8057   15.9656 C   0  0  0  0  0  0  0  0  0  0  0  0
    6.2025   -7.9700   14.6611 N   0  0  0  0  0  0  0  0  0  0  0  0
    3.2447  -10.0499   11.6325 N   0  0  0  0  0  0  0  0  0  0  0  0
    4.2452  -10.1510   10.5015 C   0  0  0  0  0  0  0  0  0  0  0  0
    4.6977  -10.7939    8.8613 C   0  0  0  0  0  0  0  0  0  0  0  0
    4.0961  -11.8638    8.4328 C   0  0  0  0  0  0  0  0  0  0  0  0
    4.3941  -12.8957    6.9559 Br  0  0  0  0  0  0  0  0  0  0  0  0
    2.8978  -11.9209    9.2083 C   0  0  0  0  0  0  0  0  0  0  0  0
    2.6856  -11.3602   10.9010 C   0  0  0  0  0  0  0  0  0  0  0  0
    8.2968   -6.8910   14.9872 H   0  0  0  0  0  0  0  0  0  0  0  0
    5.6213   -6.4532   16.6902 H   0  0  0  0  0  0  0  0  0  0  0  0
    6.9736   -8.5405   14.1987 H   0  0  0  0  0  0  0  0  0  0  0  0
    4.5141   -9.0993   10.4167 H   0  0  0  0  0  0  0  0  0  0  0  0
    4.6021  -10.8705   11.1941 H   0  0  0  0  0  0  0  0  0  0  0  0
    5.5832  -10.3778    8.3836 H   0  0  0  0  0  0  0  0  0  0  0  0
    2.6565  -12.9881    9.2048 H   0  0  0  0  0  0  0  0  0  0  0  0
    2.2552  -11.3302    8.5380 H   0  0  0  0  0  0  0  0  0  0  0  0
    3.3795  -12.1343   11.1055 H   0  0  0  0  0  0  0  0  0  0  0  0
    1.6567  -11.4389   11.2551 H   0  0  0  0  0  0  0  0  0  0  0  0
  1  2  2  0
  2  3  1  0
  3  4  2  0
  4  5  1  0
  5  6  2  0
  6  7  1  0
  2  8  1  0
  8  9  1  0
  9 10  1  0
 10 11  2  0
 11 12  1  0
 11 13  1  0
 13 14  1  0
  7  3  1  0
 14  8  1  0
  5 15  1  0
  6 16  1  0
  7 17  1  0
  9 18  1  0
  9 19  1  0
 10 20  1  0
 13 21  1  0
 13 22  1  0
 14 23  1  0
 14 24  1  0
M  END
>  <Energy>  (377) 
779.50376033961618

>  <compound_id>  (377) 
58907

>  <target_id>  (377) 
1

>  <reference_id>  (377) 
85

>  <inspiration_ids>  (377) 
[85, 80]

>  <energy_score>  (377) 
761.5405188688503

>  <distance_score>  (377) 
7.770203754134219

>  <path>  (377) 
/opt/xchem-fragalysis-2/maxwin/BulkDock/SCRATCH/511024/C58907-P85/C58907-P85.minimised.mol

>  <scratch_subdir>  (377) 
/opt/xchem-fragalysis-2/maxwin/BulkDock/SCRATCH/511024/C58907-P85

>  <fragmenstein_runtime>  (377) 
4.985609292984009

>  <fragmenstein_outcome>  (377) 
too moved

>  <fragmenstein_mode>  (377) 
expansion

>  <fragmenstein_error>  (377) 


$$$$
C58907-P80
     RDKit          3D

 24 25  0  0  0  0  0  0  0  0999 V2000
    5.4204  -11.1260   13.9905 O   0  0  0  0  0  0  0  0  0  0  0  0
    6.4251  -11.7229   13.6300 C   0  0  0  0  0  0  0  0  0  0  0  0
    8.2885  -11.1287   14.2940 C   0  0  0  0  0  0  0  0  0  0  0  0
    8.6040  -10.2765   15.3634 N   0  0  0  0  0  0  0  0  0  0  0  0
    9.9212  -10.3954   15.7055 C   0  0  0  0  0  0  0  0  0  0  0  0
   10.2183  -11.6788   15.8460 C   0  0  0  0  0  0  0  0  0  0  0  0
    9.2302  -12.1661   15.0892 N   0  0  0  0  0  0  0  0  0  0  0  0
    6.5475  -12.9168   12.5641 N   0  0  0  0  0  0  0  0  0  0  0  0
    6.4413  -14.0053   13.1121 C   0  0  0  0  0  0  0  0  0  0  0  0
    7.2243  -14.1808   11.3858 C   0  0  0  0  0  0  0  0  0  0  0  0
    6.9725  -14.6450   10.1171 C   0  0  0  0  0  0  0  0  0  0  0  0
    8.1302  -14.8950    8.7206 Br  0  0  0  0  0  0  0  0  0  0  0  0
    5.5238  -14.9201   10.1279 C   0  0  0  0  0  0  0  0  0  0  0  0
    5.1458  -13.7511   11.3414 C   0  0  0  0  0  0  0  0  0  0  0  0
   10.5555   -9.6401   16.0540 H   0  0  0  0  0  0  0  0  0  0  0  0
   10.9860  -12.2404   16.3543 H   0  0  0  0  0  0  0  0  0  0  0  0
    8.8670  -13.0804   15.2012 H   0  0  0  0  0  0  0  0  0  0  0  0
    7.1276  -13.9636   13.9553 H   0  0  0  0  0  0  0  0  0  0  0  0
    5.7710  -13.5308   13.7879 H   0  0  0  0  0  0  0  0  0  0  0  0
    6.4178  -14.7470   11.6919 H   0  0  0  0  0  0  0  0  0  0  0  0
    5.2909  -15.9772   10.2939 H   0  0  0  0  0  0  0  0  0  0  0  0
    4.7179  -14.7003    9.4478 H   0  0  0  0  0  0  0  0  0  0  0  0
    4.2286  -13.1772   11.4522 H   0  0  0  0  0  0  0  0  0  0  0  0
    4.7472  -13.2629   10.4080 H   0  0  0  0  0  0  0  0  0  0  0  0
  1  2  2  0
  2  3  1  0
  3  4  2  0
  4  5  1  0
  5  6  2  0
  6  7  1  0
  2  8  1  0
  8  9  1  0
  9 10  1  0
 10 11  2  0
 11 12  1  0
 11 13  1  0
 13 14  1  0
  7  3  1  0
 14  8  1  0
  5 15  1  0
  6 16  1  0
  7 17  1  0
  9 18  1  0
  9 19  1  0
 10 20  1  0
 13 21  1  0
 13 22  1  0
 14 23  1  0
 14 24  1  0
M  END
>  <Energy>  (378) 
729.64387210824509

>  <compound_id>  (378) 
58907

>  <target_id>  (378) 
1

>  <reference_id>  (378) 
80

>  <inspiration_ids>  (378) 
[85, 80]

>  <energy_score>  (378) 
711.6806306374783

>  <distance_score>  (378) 
7.997195987778398

>  <path>  (378) 
/opt/xchem-fragalysis-2/maxwin/BulkDock/SCRATCH/511024/C58907-P80/C58907-P80.minimised.mol

>  <scratch_subdir>  (378) 
/opt/xchem-fragalysis-2/maxwin/BulkDock/SCRATCH/511024/C58907-P80

>  <fragmenstein_runtime>  (378) 
3.5340986251831055

>  <fragmenstein_outcome>  (378) 
too moved

>  <fragmenstein_mode>  (378) 
expansion

>  <fragmenstein_error>  (378) 


$$$$
C58910-P85
     RDKit          3D

 38 40  0  0  0  0  0  0  0  0999 V2000
    6.5663  -13.2553   14.2468 O   0  0  0  0  0  0  0  0  0  0  0  0
    7.0903  -12.6373   13.4005 C   0  0  0  0  0  0  0  0  0  0  0  0
    8.3370  -11.1848   14.2441 O   0  0  0  0  0  0  0  0  0  0  0  0
    9.5148   -9.7980   15.3551 C   0  0  0  0  0  0  0  0  0  0  0  0
   10.0138   -7.6919   15.6480 C   0  0  0  0  0  0  0  0  0  0  0  0
   11.0148   -6.1232   15.2138 C   0  0  0  0  0  0  0  0  0  0  0  0
   11.3352   -4.5313   15.3658 C   0  0  0  0  0  0  0  0  0  0  0  0
   12.0709   -4.2051   16.4326 C   0  0  0  0  0  0  0  0  0  0  0  0
   12.2949   -5.3870   17.0354 C   0  0  0  0  0  0  0  0  0  0  0  0
   11.4381   -6.7802   16.5575 C   0  0  0  0  0  0  0  0  0  0  0  0
    6.7917  -13.2909   11.6638 N   0  0  0  0  0  0  0  0  0  0  0  0
    5.9344  -14.3692   11.1726 C   0  0  0  0  0  0  0  0  0  0  0  0
    5.5431  -15.5532    9.9650 C   0  0  0  0  0  0  0  0  0  0  0  0
    5.6448  -15.0117    8.7883 C   0  0  0  0  0  0  0  0  0  0  0  0
    4.5486  -14.9411    7.9164 C   0  0  0  0  0  0  0  0  0  0  0  0
    3.4985  -15.7237    7.7986 N   0  0  0  0  0  0  0  0  0  0  0  0
    2.5870  -15.0218    7.0523 C   0  0  0  0  0  0  0  0  0  0  0  0
    3.0930  -13.7925    6.7025 C   0  0  0  0  0  0  0  0  0  0  0  0
    4.3624  -13.7786    7.2059 N   0  0  0  0  0  0  0  0  0  0  0  0
    6.8517  -14.2801    9.0637 C   0  0  0  0  0  0  0  0  0  0  0  0
    7.5590  -14.2802   10.8019 C   0  0  0  0  0  0  0  0  0  0  0  0
   10.4569  -10.3152   15.1613 H   0  0  0  0  0  0  0  0  0  0  0  0
    9.2149  -10.1819   16.3232 H   0  0  0  0  0  0  0  0  0  0  0  0
   12.0288   -6.2191   14.7973 H   0  0  0  0  0  0  0  0  0  0  0  0
   11.3416   -3.9068   14.4767 H   0  0  0  0  0  0  0  0  0  0  0  0
   12.5762   -3.2779   16.6195 H   0  0  0  0  0  0  0  0  0  0  0  0
   13.1073   -5.4919   17.7483 H   0  0  0  0  0  0  0  0  0  0  0  0
   12.2908   -7.5204   16.7373 H   0  0  0  0  0  0  0  0  0  0  0  0
    5.2387  -13.6001   10.7632 H   0  0  0  0  0  0  0  0  0  0  0  0
    5.5993  -14.8554   12.0742 H   0  0  0  0  0  0  0  0  0  0  0  0
    4.7421  -16.2730   10.1722 H   0  0  0  0  0  0  0  0  0  0  0  0
    1.6167  -15.4385    6.8093 H   0  0  0  0  0  0  0  0  0  0  0  0
    2.6750  -12.9684    6.1406 H   0  0  0  0  0  0  0  0  0  0  0  0
    5.0060  -13.0004    7.1753 H   0  0  0  0  0  0  0  0  0  0  0  0
    6.6241  -13.3067    8.6687 H   0  0  0  0  0  0  0  0  0  0  0  0
    7.5124  -14.9697    8.5750 H   0  0  0  0  0  0  0  0  0  0  0  0
    8.4002  -13.6839   10.4824 H   0  0  0  0  0  0  0  0  0  0  0  0
    7.9467  -15.2400   10.4545 H   0  0  0  0  0  0  0  0  0  0  0  0
  1  2  2  0
  2  3  1  0
  3  4  1  0
  4  5  1  0
  5  6  2  0
  6  7  1  0
  7  8  2  0
  8  9  1  0
  9 10  2  0
  2 11  1  0
 11 12  1  0
 12 13  1  0
 13 14  2  0
 14 15  1  0
 15 16  2  0
 16 17  1  0
 17 18  2  0
 18 19  1  0
 14 20  1  0
 20 21  1  0
 10  5  1  0
 21 11  1  0
 19 15  1  0
  4 22  1  0
  4 23  1  0
  6 24  1  0
  7 25  1  0
  8 26  1  0
  9 27  1  0
 10 28  1  0
 12 29  1  0
 12 30  1  0
 13 31  1  0
 17 32  1  0
 18 33  1  0
 19 34  1  0
 20 35  1  0
 20 36  1  0
 21 37  1  0
 21 38  1  0
M  END
>  <Energy>  (379) 
1442.2480265519628

>  <compound_id>  (379) 
58910

>  <target_id>  (379) 
1

>  <reference_id>  (379) 
85

>  <inspiration_ids>  (379) 
[85, 80]

>  <energy_score>  (379) 
1454.6831962725525

>  <distance_score>  (379) 
4.313732406171703

>  <path>  (379) 
/opt/xchem-fragalysis-2/maxwin/BulkDock/SCRATCH/511024/C58910-P85/C58910-P85.minimised.mol

>  <scratch_subdir>  (379) 
/opt/xchem-fragalysis-2/maxwin/BulkDock/SCRATCH/511024/C58910-P85

>  <fragmenstein_runtime>  (379) 
10.950924634933472

>  <fragmenstein_outcome>  (379) 
too moved

>  <fragmenstein_mode>  (379) 
expansion

>  <fragmenstein_error>  (379) 


$$$$
C58910-P80
     RDKit          3D

 38 40  0  0  0  0  0  0  0  0999 V2000
    7.6732  -13.7058   11.5375 O   0  0  0  0  0  0  0  0  0  0  0  0
    6.7279  -13.4873   12.1312 C   0  0  0  0  0  0  0  0  0  0  0  0
    7.1126  -12.0758   13.5035 O   0  0  0  0  0  0  0  0  0  0  0  0
    8.5265  -10.6982   14.4749 C   0  0  0  0  0  0  0  0  0  0  0  0
    9.7741   -8.9776   15.1763 C   0  0  0  0  0  0  0  0  0  0  0  0
   10.1200   -7.1417   14.9412 C   0  0  0  0  0  0  0  0  0  0  0  0
   10.4928   -5.1623   14.6876 C   0  0  0  0  0  0  0  0  0  0  0  0
   11.1750   -4.4707   15.6450 C   0  0  0  0  0  0  0  0  0  0  0  0
   11.3970   -5.6593   16.2268 C   0  0  0  0  0  0  0  0  0  0  0  0
   10.4583   -7.1961   15.6084 C   0  0  0  0  0  0  0  0  0  0  0  0
    5.4043  -14.4121   11.4095 N   0  0  0  0  0  0  0  0  0  0  0  0
    5.3649  -15.5939   10.1356 C   0  0  0  0  0  0  0  0  0  0  0  0
    4.5859  -16.4404    9.2046 C   0  0  0  0  0  0  0  0  0  0  0  0
    3.4394  -16.0259    8.7244 C   0  0  0  0  0  0  0  0  0  0  0  0
    2.7782  -16.8457    7.7801 C   0  0  0  0  0  0  0  0  0  0  0  0
    3.1895  -17.9598    7.2041 N   0  0  0  0  0  0  0  0  0  0  0  0
    2.1447  -18.3957    6.4382 C   0  0  0  0  0  0  0  0  0  0  0  0
    1.0992  -17.5151    6.5114 C   0  0  0  0  0  0  0  0  0  0  0  0
    1.5338  -16.5078    7.3205 N   0  0  0  0  0  0  0  0  0  0  0  0
    3.1443  -14.7457    9.4024 C   0  0  0  0  0  0  0  0  0  0  0  0
    4.4211  -13.7463   10.1578 C   0  0  0  0  0  0  0  0  0  0  0  0
    9.3720  -11.1045   13.9150 H   0  0  0  0  0  0  0  0  0  0  0  0
    8.7750  -11.2731   15.3985 H   0  0  0  0  0  0  0  0  0  0  0  0
   11.0179   -6.8368   14.0658 H   0  0  0  0  0  0  0  0  0  0  0  0
   10.7308   -4.7624   13.6837 H   0  0  0  0  0  0  0  0  0  0  0  0
   11.7238   -3.5588   15.6114 H   0  0  0  0  0  0  0  0  0  0  0  0
   12.4117   -5.7974   16.6292 H   0  0  0  0  0  0  0  0  0  0  0  0
   11.8729   -7.4507   15.8736 H   0  0  0  0  0  0  0  0  0  0  0  0
    5.1910  -16.4839   10.7099 H   0  0  0  0  0  0  0  0  0  0  0  0
    6.3693  -15.4927    9.7030 H   0  0  0  0  0  0  0  0  0  0  0  0
    5.0271  -17.3827    8.8710 H   0  0  0  0  0  0  0  0  0  0  0  0
    2.1923  -19.3231    5.8832 H   0  0  0  0  0  0  0  0  0  0  0  0
    0.1146  -17.5231    6.0668 H   0  0  0  0  0  0  0  0  0  0  0  0
    1.0154  -15.6749    7.5457 H   0  0  0  0  0  0  0  0  0  0  0  0
    2.5890  -13.9778    8.9102 H   0  0  0  0  0  0  0  0  0  0  0  0
    2.3568  -15.2189    9.9906 H   0  0  0  0  0  0  0  0  0  0  0  0
    4.9827  -13.3071    9.3894 H   0  0  0  0  0  0  0  0  0  0  0  0
    3.8357  -12.9464   10.6223 H   0  0  0  0  0  0  0  0  0  0  0  0
  1  2  2  0
  2  3  1  0
  3  4  1  0
  4  5  1  0
  5  6  2  0
  6  7  1  0
  7  8  2  0
  8  9  1  0
  9 10  2  0
  2 11  1  0
 11 12  1  0
 12 13  1  0
 13 14  2  0
 14 15  1  0
 15 16  2  0
 16 17  1  0
 17 18  2  0
 18 19  1  0
 14 20  1  0
 20 21  1  0
 10  5  1  0
 21 11  1  0
 19 15  1  0
  4 22  1  0
  4 23  1  0
  6 24  1  0
  7 25  1  0
  8 26  1  0
  9 27  1  0
 10 28  1  0
 12 29  1  0
 12 30  1  0
 13 31  1  0
 17 32  1  0
 18 33  1  0
 19 34  1  0
 20 35  1  0
 20 36  1  0
 21 37  1  0
 21 38  1  0
M  END
>  <Energy>  (380) 
1804.1987288885193

>  <compound_id>  (380) 
58910

>  <target_id>  (380) 
1

>  <reference_id>  (380) 
80

>  <inspiration_ids>  (380) 
[85, 80]

>  <energy_score>  (380) 
1816.633898609141

>  <distance_score>  (380) 
4.885767554262832

>  <path>  (380) 
/opt/xchem-fragalysis-2/maxwin/BulkDock/SCRATCH/511024/C58910-P80/C58910-P80.minimised.mol

>  <scratch_subdir>  (380) 
/opt/xchem-fragalysis-2/maxwin/BulkDock/SCRATCH/511024/C58910-P80

>  <fragmenstein_runtime>  (380) 
11.433959484100342

>  <fragmenstein_outcome>  (380) 
too moved

>  <fragmenstein_mode>  (380) 
expansion

>  <fragmenstein_error>  (380) 


$$$$
C54438-P85
     RDKit          3D

 38 40  0  0  0  0  0  0  0  0999 V2000
    5.9019  -11.4105   13.5983 O   0  0  0  0  0  0  0  0  0  0  0  0
    6.9395  -12.0688   13.4541 C   0  0  0  0  0  0  0  0  0  0  0  0
    8.4897  -11.1247   14.3926 O   0  0  0  0  0  0  0  0  0  0  0  0
    9.6904   -9.7084   15.3615 C   0  0  0  0  0  0  0  0  0  0  0  0
   10.0595   -7.5955   15.6425 C   0  0  0  0  0  0  0  0  0  0  0  0
   11.0668   -6.0621   15.1962 C   0  0  0  0  0  0  0  0  0  0  0  0
   11.2824   -4.4996   15.3426 C   0  0  0  0  0  0  0  0  0  0  0  0
   12.1261   -4.2043   16.3500 C   0  0  0  0  0  0  0  0  0  0  0  0
   12.3675   -5.3726   16.9961 C   0  0  0  0  0  0  0  0  0  0  0  0
   11.4902   -6.7594   16.5688 C   0  0  0  0  0  0  0  0  0  0  0  0
    7.0796  -13.6247   12.3396 N   0  0  0  0  0  0  0  0  0  0  0  0
    7.5804  -13.8067   10.4746 C   0  0  0  0  0  0  0  0  0  0  0  0
    6.4080  -13.8185    9.0765 C   0  0  0  0  0  0  0  0  0  0  0  0
    5.4188  -14.6710    8.8608 C   0  0  0  0  0  0  0  0  0  0  0  0
    4.3209  -14.5527    7.9758 C   0  0  0  0  0  0  0  0  0  0  0  0
    3.2356  -15.3830    7.8250 C   0  0  0  0  0  0  0  0  0  0  0  0
    2.3948  -14.7143    6.9723 N   0  0  0  0  0  0  0  0  0  0  0  0
    3.0051  -13.5410    6.6287 C   0  0  0  0  0  0  0  0  0  0  0  0
    4.1879  -13.4380    7.1882 N   0  0  0  0  0  0  0  0  0  0  0  0
    5.4362  -15.5840    9.9653 C   0  0  0  0  0  0  0  0  0  0  0  0
    5.8620  -14.4569   11.4675 C   0  0  0  0  0  0  0  0  0  0  0  0
   10.6076  -10.2367   15.1187 H   0  0  0  0  0  0  0  0  0  0  0  0
    9.5501  -10.1780   16.3517 H   0  0  0  0  0  0  0  0  0  0  0  0
   12.1392   -6.1903   14.8986 H   0  0  0  0  0  0  0  0  0  0  0  0
   10.5059   -3.7809   15.1148 H   0  0  0  0  0  0  0  0  0  0  0  0
   12.4666   -3.2328   16.6534 H   0  0  0  0  0  0  0  0  0  0  0  0
   13.1414   -5.4522   17.7521 H   0  0  0  0  0  0  0  0  0  0  0  0
   12.3067   -7.5231   16.7536 H   0  0  0  0  0  0  0  0  0  0  0  0
    7.9468  -14.8276   10.1853 H   0  0  0  0  0  0  0  0  0  0  0  0
    8.5689  -13.4889   10.3273 H   0  0  0  0  0  0  0  0  0  0  0  0
    6.3220  -12.9226    8.4601 H   0  0  0  0  0  0  0  0  0  0  0  0
    2.9582  -16.3334    8.2576 H   0  0  0  0  0  0  0  0  0  0  0  0
    1.4777  -15.0147    6.6675 H   0  0  0  0  0  0  0  0  0  0  0  0
    2.5443  -12.8187    5.9661 H   0  0  0  0  0  0  0  0  0  0  0  0
    4.5175  -16.1729   10.1294 H   0  0  0  0  0  0  0  0  0  0  0  0
    6.1505  -16.3743    9.6925 H   0  0  0  0  0  0  0  0  0  0  0  0
    6.5769  -14.9428   11.0026 H   0  0  0  0  0  0  0  0  0  0  0  0
    5.4509  -15.0650   12.2838 H   0  0  0  0  0  0  0  0  0  0  0  0
  1  2  2  0
  2  3  1  0
  3  4  1  0
  4  5  1  0
  5  6  2  0
  6  7  1  0
  7  8  2  0
  8  9  1  0
  9 10  2  0
  2 11  1  0
 11 12  1  0
 12 13  1  0
 13 14  2  0
 14 15  1  0
 15 16  2  0
 16 17  1  0
 17 18  1  0
 18 19  2  0
 14 20  1  0
 20 21  1  0
 10  5  1  0
 21 11  1  0
 19 15  1  0
  4 22  1  0
  4 23  1  0
  6 24  1  0
  7 25  1  0
  8 26  1  0
  9 27  1  0
 10 28  1  0
 12 29  1  0
 12 30  1  0
 13 31  1  0
 16 32  1  0
 17 33  1  0
 18 34  1  0
 20 35  1  0
 20 36  1  0
 21 37  1  0
 21 38  1  0
M  END
>  <Energy>  (381) 
1400.7507415557764

>  <compound_id>  (381) 
54438

>  <target_id>  (381) 
1

>  <reference_id>  (381) 
85

>  <inspiration_ids>  (381) 
[85, 80]

>  <energy_score>  (381) 
1418.2868162528544

>  <distance_score>  (381) 
4.2138712896612

>  <path>  (381) 
/opt/xchem-fragalysis-2/maxwin/BulkDock/SCRATCH/511024/C54438-P85/C54438-P85.minimised.mol

>  <scratch_subdir>  (381) 
/opt/xchem-fragalysis-2/maxwin/BulkDock/SCRATCH/511024/C54438-P85

>  <fragmenstein_runtime>  (381) 
7.533589839935303

>  <fragmenstein_outcome>  (381) 
too moved

>  <fragmenstein_mode>  (381) 
expansion

>  <fragmenstein_error>  (381) 


$$$$
C54438-P80
     RDKit          3D

 38 40  0  0  0  0  0  0  0  0999 V2000
    5.2699  -10.5805   14.0934 O   0  0  0  0  0  0  0  0  0  0  0  0
    6.3775  -11.0736   13.9140 C   0  0  0  0  0  0  0  0  0  0  0  0
    8.1072  -10.3433   14.6978 O   0  0  0  0  0  0  0  0  0  0  0  0
    9.6730   -8.9027   15.0873 C   0  0  0  0  0  0  0  0  0  0  0  0
   10.5291   -6.9143   15.2682 C   0  0  0  0  0  0  0  0  0  0  0  0
   10.5394   -5.1474   14.5992 C   0  0  0  0  0  0  0  0  0  0  0  0
   11.0669   -3.8614   15.0894 C   0  0  0  0  0  0  0  0  0  0  0  0
   11.9462   -3.8968   16.1361 C   0  0  0  0  0  0  0  0  0  0  0  0
   12.3597   -5.1668   16.5441 C   0  0  0  0  0  0  0  0  0  0  0  0
   11.7415   -6.5448   16.1241 C   0  0  0  0  0  0  0  0  0  0  0  0
    6.5655  -12.6108   12.7640 N   0  0  0  0  0  0  0  0  0  0  0  0
    6.5164  -13.8668   13.0367 C   0  0  0  0  0  0  0  0  0  0  0  0
    7.2234  -14.1852   11.2746 C   0  0  0  0  0  0  0  0  0  0  0  0
    6.8052  -14.7578   10.1367 C   0  0  0  0  0  0  0  0  0  0  0  0
    7.5088  -15.3247    9.0602 C   0  0  0  0  0  0  0  0  0  0  0  0
    8.5292  -14.7842    8.3287 C   0  0  0  0  0  0  0  0  0  0  0  0
    9.0202  -15.8315    7.6099 N   0  0  0  0  0  0  0  0  0  0  0  0
    8.2762  -16.9367    7.9202 C   0  0  0  0  0  0  0  0  0  0  0  0
    7.3363  -16.6598    8.7938 N   0  0  0  0  0  0  0  0  0  0  0  0
    5.4400  -14.8635   10.3406 C   0  0  0  0  0  0  0  0  0  0  0  0
    5.1921  -13.6178   11.5488 C   0  0  0  0  0  0  0  0  0  0  0  0
    9.0257   -7.9315   15.0634 H   0  0  0  0  0  0  0  0  0  0  0  0
   10.1215   -9.5292   15.8750 H   0  0  0  0  0  0  0  0  0  0  0  0
   10.7001   -4.9984   13.5165 H   0  0  0  0  0  0  0  0  0  0  0  0
   10.9074   -2.9541   14.5133 H   0  0  0  0  0  0  0  0  0  0  0  0
   12.4430   -3.0032   16.4939 H   0  0  0  0  0  0  0  0  0  0  0  0
   13.2290   -5.1941   17.1986 H   0  0  0  0  0  0  0  0  0  0  0  0
   12.4018   -7.3553   16.3145 H   0  0  0  0  0  0  0  0  0  0  0  0
    6.9792  -13.8681   14.0127 H   0  0  0  0  0  0  0  0  0  0  0  0
    5.8206  -14.6838   13.1125 H   0  0  0  0  0  0  0  0  0  0  0  0
    8.1266  -13.8593   10.8816 H   0  0  0  0  0  0  0  0  0  0  0  0
    8.9539  -13.7910    8.3068 H   0  0  0  0  0  0  0  0  0  0  0  0
    9.8219  -15.8065    6.9958 H   0  0  0  0  0  0  0  0  0  0  0  0
    8.4775  -17.9083    7.4900 H   0  0  0  0  0  0  0  0  0  0  0  0
    5.1668  -15.9217   10.4592 H   0  0  0  0  0  0  0  0  0  0  0  0
    4.7263  -14.6033    9.5656 H   0  0  0  0  0  0  0  0  0  0  0  0
    4.7129  -13.2090   10.5995 H   0  0  0  0  0  0  0  0  0  0  0  0
    4.2572  -13.0693   11.5775 H   0  0  0  0  0  0  0  0  0  0  0  0
  1  2  2  0
  2  3  1  0
  3  4  1  0
  4  5  1  0
  5  6  2  0
  6  7  1  0
  7  8  2  0
  8  9  1  0
  9 10  2  0
  2 11  1  0
 11 12  1  0
 12 13  1  0
 13 14  2  0
 14 15  1  0
 15 16  2  0
 16 17  1  0
 17 18  1  0
 18 19  2  0
 14 20  1  0
 20 21  1  0
 10  5  1  0
 21 11  1  0
 19 15  1  0
  4 22  1  0
  4 23  1  0
  6 24  1  0
  7 25  1  0
  8 26  1  0
  9 27  1  0
 10 28  1  0
 12 29  1  0
 12 30  1  0
 13 31  1  0
 16 32  1  0
 17 33  1  0
 18 34  1  0
 20 35  1  0
 20 36  1  0
 21 37  1  0
 21 38  1  0
M  END
>  <Energy>  (382) 
1257.8769321063312

>  <compound_id>  (382) 
54438

>  <target_id>  (382) 
1

>  <reference_id>  (382) 
80

>  <inspiration_ids>  (382) 
[85, 80]

>  <energy_score>  (382) 
1275.4130068034133

>  <distance_score>  (382) 
5.755978667747949

>  <path>  (382) 
/opt/xchem-fragalysis-2/maxwin/BulkDock/SCRATCH/511024/C54438-P80/C54438-P80.minimised.mol

>  <scratch_subdir>  (382) 
/opt/xchem-fragalysis-2/maxwin/BulkDock/SCRATCH/511024/C54438-P80

>  <fragmenstein_runtime>  (382) 
12.25029468536377

>  <fragmenstein_outcome>  (382) 
too moved

>  <fragmenstein_mode>  (382) 
expansion

>  <fragmenstein_error>  (382) 


$$$$
C54439-P85
     RDKit          3D

 36 38  0  0  0  0  0  0  0  0999 V2000
    5.6612  -14.9458   12.4909 O   0  0  0  0  0  0  0  0  0  0  0  0
    6.2466  -14.0370   11.8900 C   0  0  0  0  0  0  0  0  0  0  0  0
    6.8863  -12.5389   13.2254 C   0  0  0  0  0  0  0  0  0  0  0  0
    7.4522  -13.5883   12.0275 O   0  0  0  0  0  0  0  0  0  0  0  0
    8.4204  -11.2813   14.2531 C   0  0  0  0  0  0  0  0  0  0  0  0
    9.4097  -11.6710   15.5882 C   0  0  0  0  0  0  0  0  0  0  0  0
   10.2706  -10.7876   16.1817 C   0  0  0  0  0  0  0  0  0  0  0  0
   10.8935  -11.4836   17.1566 N   0  0  0  0  0  0  0  0  0  0  0  0
   10.6031  -12.7876   16.9479 C   0  0  0  0  0  0  0  0  0  0  0  0
    9.7153  -12.9288   15.9943 N   0  0  0  0  0  0  0  0  0  0  0  0
    6.5463  -14.2219   10.1553 N   0  0  0  0  0  0  0  0  0  0  0  0
    5.2840  -13.5872    9.2653 C   0  0  0  0  0  0  0  0  0  0  0  0
    4.1650  -14.2919    8.5505 C   0  0  0  0  0  0  0  0  0  0  0  0
    4.0050  -15.6131    8.5626 C   0  0  0  0  0  0  0  0  0  0  0  0
    2.9457  -16.3116    7.9327 C   0  0  0  0  0  0  0  0  0  0  0  0
    2.6395  -17.5949    8.2826 N   0  0  0  0  0  0  0  0  0  0  0  0
    1.6187  -17.9570    7.5177 N   0  0  0  0  0  0  0  0  0  0  0  0
    1.3921  -16.9011    6.7231 N   0  0  0  0  0  0  0  0  0  0  0  0
    2.1512  -15.8176    6.9708 N   0  0  0  0  0  0  0  0  0  0  0  0
    5.1000  -16.3555    9.2217 C   0  0  0  0  0  0  0  0  0  0  0  0
    6.3126  -15.3952    9.1887 C   0  0  0  0  0  0  0  0  0  0  0  0
    6.5411  -13.1724   14.0384 H   0  0  0  0  0  0  0  0  0  0  0  0
    7.8882  -13.2967   11.1894 H   0  0  0  0  0  0  0  0  0  0  0  0
    9.4281  -11.0953   13.8344 H   0  0  0  0  0  0  0  0  0  0  0  0
    7.9180  -10.4181   14.6731 H   0  0  0  0  0  0  0  0  0  0  0  0
   10.4400   -9.7552   15.9826 H   0  0  0  0  0  0  0  0  0  0  0  0
   11.4713  -11.1162   17.8912 H   0  0  0  0  0  0  0  0  0  0  0  0
   11.0252  -13.5969   17.5286 H   0  0  0  0  0  0  0  0  0  0  0  0
    5.7560  -12.9291    8.5246 H   0  0  0  0  0  0  0  0  0  0  0  0
    4.7053  -12.9923    9.9661 H   0  0  0  0  0  0  0  0  0  0  0  0
    3.4322  -13.6586    8.0512 H   0  0  0  0  0  0  0  0  0  0  0  0
    0.7010  -16.9302    5.9741 H   0  0  0  0  0  0  0  0  0  0  0  0
    4.8213  -16.6907   10.2211 H   0  0  0  0  0  0  0  0  0  0  0  0
    5.3620  -17.2449    8.6347 H   0  0  0  0  0  0  0  0  0  0  0  0
    7.2109  -16.0143    9.2873 H   0  0  0  0  0  0  0  0  0  0  0  0
    6.5093  -15.0548    8.1548 H   0  0  0  0  0  0  0  0  0  0  0  0
  1  2  2  0
  2  3  1  0
  3  4  1  0
  3  5  1  0
  5  6  1  0
  6  7  2  0
  7  8  1  0
  8  9  1  0
  9 10  2  0
  2 11  1  0
 11 12  1  0
 12 13  1  0
 13 14  2  0
 14 15  1  0
 15 16  1  0
 16 17  2  0
 17 18  1  0
 18 19  1  0
 14 20  1  0
 20 21  1  0
 10  6  1  0
 21 11  1  0
 19 15  2  0
  3 22  1  0
  4 23  1  0
  5 24  1  0
  5 25  1  0
  7 26  1  0
  8 27  1  0
  9 28  1  0
 12 29  1  0
 12 30  1  0
 13 31  1  0
 18 32  1  0
 20 33  1  0
 20 34  1  0
 21 35  1  0
 21 36  1  0
M  END
>  <Energy>  (383) 
611.03530257792693

>  <compound_id>  (383) 
54439

>  <target_id>  (383) 
1

>  <reference_id>  (383) 
85

>  <inspiration_ids>  (383) 
[85, 80]

>  <energy_score>  (383) 
530.6681768144268

>  <distance_score>  (383) 
6.928574508896727

>  <path>  (383) 
/opt/xchem-fragalysis-2/maxwin/BulkDock/SCRATCH/511024/C54439-P85/C54439-P85.minimised.mol

>  <scratch_subdir>  (383) 
/opt/xchem-fragalysis-2/maxwin/BulkDock/SCRATCH/511024/C54439-P85

>  <fragmenstein_runtime>  (383) 
8.761409044265747

>  <fragmenstein_outcome>  (383) 
too moved

>  <fragmenstein_mode>  (383) 
expansion

>  <fragmenstein_error>  (383) 


$$$$
C54439-P80
     RDKit          3D

 36 38  0  0  0  0  0  0  0  0999 V2000
    7.5450  -13.6663   11.8093 O   0  0  0  0  0  0  0  0  0  0  0  0
    6.7228  -13.9766   12.4923 C   0  0  0  0  0  0  0  0  0  0  0  0
    7.3282  -13.4824   14.6022 C   0  0  0  0  0  0  0  0  0  0  0  0
    9.0007  -13.3255   15.3738 O   0  0  0  0  0  0  0  0  0  0  0  0
    8.7590  -11.6634   14.7981 C   0  0  0  0  0  0  0  0  0  0  0  0
    9.7621   -9.8290   15.3072 C   0  0  0  0  0  0  0  0  0  0  0  0
    9.7831   -8.0010   15.5157 C   0  0  0  0  0  0  0  0  0  0  0  0
   11.3512   -6.9488   15.9052 N   0  0  0  0  0  0  0  0  0  0  0  0
   10.6346   -6.6336   14.9922 C   0  0  0  0  0  0  0  0  0  0  0  0
    9.7139   -8.0337   14.7240 N   0  0  0  0  0  0  0  0  0  0  0  0
    5.3777  -14.5378   11.4472 N   0  0  0  0  0  0  0  0  0  0  0  0
    4.9564  -16.3561   10.7222 C   0  0  0  0  0  0  0  0  0  0  0  0
    5.7435  -17.0559    9.5865 C   0  0  0  0  0  0  0  0  0  0  0  0
    6.6853  -16.3627    8.9470 C   0  0  0  0  0  0  0  0  0  0  0  0
    7.6286  -16.8327    8.0120 C   0  0  0  0  0  0  0  0  0  0  0  0
    8.6534  -16.0327    7.5873 N   0  0  0  0  0  0  0  0  0  0  0  0
    9.4164  -16.7768    6.8023 N   0  0  0  0  0  0  0  0  0  0  0  0
    8.8425  -17.9812    6.8205 N   0  0  0  0  0  0  0  0  0  0  0  0
    7.6850  -18.0713    7.4950 N   0  0  0  0  0  0  0  0  0  0  0  0
    6.7471  -14.9444    9.4039 C   0  0  0  0  0  0  0  0  0  0  0  0
    5.1961  -14.5320    9.9936 C   0  0  0  0  0  0  0  0  0  0  0  0
    7.5543  -14.4326   15.0245 H   0  0  0  0  0  0  0  0  0  0  0  0
    9.3284  -14.1226   15.8449 H   0  0  0  0  0  0  0  0  0  0  0  0
    8.2399  -10.9436   14.1909 H   0  0  0  0  0  0  0  0  0  0  0  0
    8.7187  -11.5483   15.9421 H   0  0  0  0  0  0  0  0  0  0  0  0
    8.6189   -7.1436   15.2723 H   0  0  0  0  0  0  0  0  0  0  0  0
   12.2211   -7.4847   15.9720 H   0  0  0  0  0  0  0  0  0  0  0  0
   10.5320   -5.5023   14.6112 H   0  0  0  0  0  0  0  0  0  0  0  0
    3.9794  -16.3686   10.1429 H   0  0  0  0  0  0  0  0  0  0  0  0
    4.4531  -17.0550   11.4611 H   0  0  0  0  0  0  0  0  0  0  0  0
    5.5636  -18.1105    9.3951 H   0  0  0  0  0  0  0  0  0  0  0  0
    9.2530  -18.7726    6.3326 H   0  0  0  0  0  0  0  0  0  0  0  0
    7.5073  -14.9030   10.1532 H   0  0  0  0  0  0  0  0  0  0  0  0
    7.2216  -14.2364    8.7121 H   0  0  0  0  0  0  0  0  0  0  0  0
    4.2797  -14.8704    9.4717 H   0  0  0  0  0  0  0  0  0  0  0  0
    4.9054  -13.5162    9.7713 H   0  0  0  0  0  0  0  0  0  0  0  0
  1  2  2  0
  2  3  1  0
  3  4  1  0
  3  5  1  0
  5  6  1  0
  6  7  2  0
  7  8  1  0
  8  9  1  0
  9 10  2  0
  2 11  1  0
 11 12  1  0
 12 13  1  0
 13 14  2  0
 14 15  1  0
 15 16  1  0
 16 17  2  0
 17 18  1  0
 18 19  1  0
 14 20  1  0
 20 21  1  0
 10  6  1  0
 21 11  1  0
 19 15  2  0
  3 22  1  0
  4 23  1  0
  5 24  1  0
  5 25  1  0
  7 26  1  0
  8 27  1  0
  9 28  1  0
 12 29  1  0
 12 30  1  0
 13 31  1  0
 18 32  1  0
 20 33  1  0
 20 34  1  0
 21 35  1  0
 21 36  1  0
M  END
>  <Energy>  (384) 
1844.8400619324048

>  <compound_id>  (384) 
54439

>  <target_id>  (384) 
1

>  <reference_id>  (384) 
80

>  <inspiration_ids>  (384) 
[85, 80]

>  <energy_score>  (384) 
1764.472936168947

>  <distance_score>  (384) 
6.263211680373465

>  <path>  (384) 
/opt/xchem-fragalysis-2/maxwin/BulkDock/SCRATCH/511024/C54439-P80/C54439-P80.minimised.mol

>  <scratch_subdir>  (384) 
/opt/xchem-fragalysis-2/maxwin/BulkDock/SCRATCH/511024/C54439-P80

>  <fragmenstein_runtime>  (384) 
9.150923490524292

>  <fragmenstein_outcome>  (384) 
too moved

>  <fragmenstein_mode>  (384) 
expansion

>  <fragmenstein_error>  (384) 


$$$$
C54441-P85
     RDKit          3D

 41 43  0  0  0  0  0  0  0  0999 V2000
    5.8321  -11.4467   13.7148 O   0  0  0  0  0  0  0  0  0  0  0  0
    6.8890  -12.0861   13.5845 C   0  0  0  0  0  0  0  0  0  0  0  0
    8.6311  -11.0187   14.5405 C   0  0  0  0  0  0  0  0  0  0  0  0
    9.4147  -12.0686   15.4914 O   0  0  0  0  0  0  0  0  0  0  0  0
    9.7180   -9.4943   15.5718 C   0  0  0  0  0  0  0  0  0  0  0  0
   10.0787   -7.4245   15.6363 C   0  0  0  0  0  0  0  0  0  0  0  0
   11.1183   -5.9519   15.1579 C   0  0  0  0  0  0  0  0  0  0  0  0
   12.3641   -5.4574   15.5357 N   0  0  0  0  0  0  0  0  0  0  0  0
   12.3312   -5.8057   16.7727 C   0  0  0  0  0  0  0  0  0  0  0  0
   11.4787   -6.7982   16.7040 N   0  0  0  0  0  0  0  0  0  0  0  0
    6.9901  -13.6802   12.5688 N   0  0  0  0  0  0  0  0  0  0  0  0
    5.7806  -14.5803   11.7997 C   0  0  0  0  0  0  0  0  0  0  0  0
    5.5649  -15.5939   10.2126 C   0  0  0  0  0  0  0  0  0  0  0  0
    6.4747  -15.8017    9.2734 C   0  0  0  0  0  0  0  0  0  0  0  0
    6.3667  -16.9887    8.4221 C   0  0  0  0  0  0  0  0  0  0  0  0
    5.1043  -17.5408    8.1168 C   0  0  0  0  0  0  0  0  0  0  0  0
    4.9856  -18.8277    7.5970 C   0  0  0  0  0  0  0  0  0  0  0  0
    6.1337  -19.5533    7.3040 C   0  0  0  0  0  0  0  0  0  0  0  0
    7.3904  -18.9832    7.5105 C   0  0  0  0  0  0  0  0  0  0  0  0
    7.5091  -17.7081    8.0682 C   0  0  0  0  0  0  0  0  0  0  0  0
    7.6453  -15.0030    9.6821 C   0  0  0  0  0  0  0  0  0  0  0  0
    7.3600  -13.9234   10.8729 C   0  0  0  0  0  0  0  0  0  0  0  0
    9.4942  -11.0894   13.8936 H   0  0  0  0  0  0  0  0  0  0  0  0
    8.7515  -12.1825   16.1942 H   0  0  0  0  0  0  0  0  0  0  0  0
   10.7166   -9.9392   15.6912 H   0  0  0  0  0  0  0  0  0  0  0  0
    9.3310   -9.7845   16.5455 H   0  0  0  0  0  0  0  0  0  0  0  0
   10.6422   -4.9986   14.8590 H   0  0  0  0  0  0  0  0  0  0  0  0
   12.8131   -4.6313   15.1712 H   0  0  0  0  0  0  0  0  0  0  0  0
   12.9355   -5.4431   17.5918 H   0  0  0  0  0  0  0  0  0  0  0  0
    5.7580  -14.9996   12.8262 H   0  0  0  0  0  0  0  0  0  0  0  0
    5.0432  -15.3410   12.2418 H   0  0  0  0  0  0  0  0  0  0  0  0
    4.6955  -16.2677   10.2556 H   0  0  0  0  0  0  0  0  0  0  0  0
    4.1824  -16.9949    8.3103 H   0  0  0  0  0  0  0  0  0  0  0  0
    4.0009  -19.2454    7.3953 H   0  0  0  0  0  0  0  0  0  0  0  0
    6.0474  -20.5566    6.8929 H   0  0  0  0  0  0  0  0  0  0  0  0
    8.2844  -19.5550    7.2712 H   0  0  0  0  0  0  0  0  0  0  0  0
    8.5059  -17.3324    8.2797 H   0  0  0  0  0  0  0  0  0  0  0  0
    8.6079  -15.5188    9.6971 H   0  0  0  0  0  0  0  0  0  0  0  0
    7.5852  -14.3250    8.8658 H   0  0  0  0  0  0  0  0  0  0  0  0
    6.3900  -13.8265   10.3215 H   0  0  0  0  0  0  0  0  0  0  0  0
    8.1782  -13.3144   10.6423 H   0  0  0  0  0  0  0  0  0  0  0  0
  1  2  2  0
  2  3  1  0
  3  4  1  0
  3  5  1  0
  5  6  1  0
  6  7  2  0
  7  8  1  0
  8  9  1  0
  9 10  2  0
  2 11  1  0
 11 12  1  0
 12 13  1  0
 13 14  2  0
 14 15  1  0
 15 16  2  0
 16 17  1  0
 17 18  2  0
 18 19  1  0
 19 20  2  0
 14 21  1  0
 21 22  1  0
 10  6  1  0
 22 11  1  0
 20 15  1  0
  3 23  1  0
  4 24  1  0
  5 25  1  0
  5 26  1  0
  7 27  1  0
  8 28  1  0
  9 29  1  0
 12 30  1  0
 12 31  1  0
 13 32  1  0
 16 33  1  0
 17 34  1  0
 18 35  1  0
 19 36  1  0
 20 37  1  0
 21 38  1  0
 21 39  1  0
 22 40  1  0
 22 41  1  0
M  END
>  <Energy>  (385) 
1249.7455443854299

>  <compound_id>  (385) 
54441

>  <target_id>  (385) 
1

>  <reference_id>  (385) 
85

>  <inspiration_ids>  (385) 
[85, 80]

>  <energy_score>  (385) 
1170.8590896032033

>  <distance_score>  (385) 
5.841147493234268

>  <path>  (385) 
/opt/xchem-fragalysis-2/maxwin/BulkDock/SCRATCH/511024/C54441-P85/C54441-P85.minimised.mol

>  <scratch_subdir>  (385) 
/opt/xchem-fragalysis-2/maxwin/BulkDock/SCRATCH/511024/C54441-P85

>  <fragmenstein_runtime>  (385) 
7.9280877113342285

>  <fragmenstein_outcome>  (385) 
too moved

>  <fragmenstein_mode>  (385) 
expansion

>  <fragmenstein_error>  (385) 


$$$$
C54441-P80
     RDKit          3D

 41 43  0  0  0  0  0  0  0  0999 V2000
    7.6175  -13.7523   11.1171 O   0  0  0  0  0  0  0  0  0  0  0  0
    6.6176  -13.8054   11.7039 C   0  0  0  0  0  0  0  0  0  0  0  0
    6.6401  -12.4492   13.2669 C   0  0  0  0  0  0  0  0  0  0  0  0
    6.3914  -13.5696   14.0520 O   0  0  0  0  0  0  0  0  0  0  0  0
    8.3176  -11.3044   14.1277 C   0  0  0  0  0  0  0  0  0  0  0  0
    9.1085  -11.2039   15.6823 C   0  0  0  0  0  0  0  0  0  0  0  0
   10.0807  -10.2696   15.8407 C   0  0  0  0  0  0  0  0  0  0  0  0
   11.2155  -10.8964   16.2281 N   0  0  0  0  0  0  0  0  0  0  0  0
   10.8188  -12.1007   16.6933 C   0  0  0  0  0  0  0  0  0  0  0  0
    9.5917  -12.3499   16.3061 N   0  0  0  0  0  0  0  0  0  0  0  0
    5.5100  -14.8059   11.0570 N   0  0  0  0  0  0  0  0  0  0  0  0
    5.5661  -15.8454    9.8052 C   0  0  0  0  0  0  0  0  0  0  0  0
    4.6723  -16.6618    8.9657 C   0  0  0  0  0  0  0  0  0  0  0  0
    3.4489  -16.2664    8.7147 C   0  0  0  0  0  0  0  0  0  0  0  0
    2.4971  -17.1541    8.0595 C   0  0  0  0  0  0  0  0  0  0  0  0
    1.5089  -16.6935    7.2017 C   0  0  0  0  0  0  0  0  0  0  0  0
    0.6492  -17.6106    6.6048 C   0  0  0  0  0  0  0  0  0  0  0  0
    0.7592  -18.9747    6.8325 C   0  0  0  0  0  0  0  0  0  0  0  0
    1.7138  -19.4421    7.7132 C   0  0  0  0  0  0  0  0  0  0  0  0
    2.5643  -18.5362    8.3327 C   0  0  0  0  0  0  0  0  0  0  0  0
    3.1897  -14.9777    9.3654 C   0  0  0  0  0  0  0  0  0  0  0  0
    4.5425  -14.0437   10.0075 C   0  0  0  0  0  0  0  0  0  0  0  0
    5.7382  -11.8163   13.3909 H   0  0  0  0  0  0  0  0  0  0  0  0
    7.1837  -14.1065   14.2277 H   0  0  0  0  0  0  0  0  0  0  0  0
    9.1892  -11.0299   13.5481 H   0  0  0  0  0  0  0  0  0  0  0  0
    9.0370  -12.1109   14.4667 H   0  0  0  0  0  0  0  0  0  0  0  0
   10.0491   -9.3021   15.4483 H   0  0  0  0  0  0  0  0  0  0  0  0
   12.1770  -10.5727   16.1394 H   0  0  0  0  0  0  0  0  0  0  0  0
   11.4641  -12.7878   17.2231 H   0  0  0  0  0  0  0  0  0  0  0  0
    6.5330  -15.6583    9.3129 H   0  0  0  0  0  0  0  0  0  0  0  0
    5.6679  -16.8017   10.3091 H   0  0  0  0  0  0  0  0  0  0  0  0
    5.0674  -17.5951    8.5640 H   0  0  0  0  0  0  0  0  0  0  0  0
    1.3832  -15.6429    6.9655 H   0  0  0  0  0  0  0  0  0  0  0  0
   -0.1321  -17.2746    5.9479 H   0  0  0  0  0  0  0  0  0  0  0  0
    0.0835  -19.6641    6.3334 H   0  0  0  0  0  0  0  0  0  0  0  0
    1.7862  -20.5036    7.9305 H   0  0  0  0  0  0  0  0  0  0  0  0
    3.2769  -18.9334    9.0527 H   0  0  0  0  0  0  0  0  0  0  0  0
    2.5813  -14.2337    8.9053 H   0  0  0  0  0  0  0  0  0  0  0  0
    2.4444  -15.4007   10.0375 H   0  0  0  0  0  0  0  0  0  0  0  0
    5.0131  -13.3827    9.3473 H   0  0  0  0  0  0  0  0  0  0  0  0
    4.0202  -13.2765   10.5922 H   0  0  0  0  0  0  0  0  0  0  0  0
  1  2  2  0
  2  3  1  0
  3  4  1  0
  3  5  1  0
  5  6  1  0
  6  7  2  0
  7  8  1  0
  8  9  1  0
  9 10  2  0
  2 11  1  0
 11 12  1  0
 12 13  1  0
 13 14  2  0
 14 15  1  0
 15 16  2  0
 16 17  1  0
 17 18  2  0
 18 19  1  0
 19 20  2  0
 14 21  1  0
 21 22  1  0
 10  6  1  0
 22 11  1  0
 20 15  1  0
  3 23  1  0
  4 24  1  0
  5 25  1  0
  5 26  1  0
  7 27  1  0
  8 28  1  0
  9 29  1  0
 12 30  1  0
 12 31  1  0
 13 32  1  0
 16 33  1  0
 17 34  1  0
 18 35  1  0
 19 36  1  0
 20 37  1  0
 21 38  1  0
 21 39  1  0
 22 40  1  0
 22 41  1  0
M  END
>  <Energy>  (386) 
575.0791191025628

>  <compound_id>  (386) 
54441

>  <target_id>  (386) 
1

>  <reference_id>  (386) 
80

>  <inspiration_ids>  (386) 
[85, 80]

>  <energy_score>  (386) 
496.19266432032555

>  <distance_score>  (386) 
6.830693086221322

>  <path>  (386) 
/opt/xchem-fragalysis-2/maxwin/BulkDock/SCRATCH/511024/C54441-P80/C54441-P80.minimised.mol

>  <scratch_subdir>  (386) 
/opt/xchem-fragalysis-2/maxwin/BulkDock/SCRATCH/511024/C54441-P80

>  <fragmenstein_runtime>  (386) 
9.81816840171814

>  <fragmenstein_outcome>  (386) 
too moved

>  <fragmenstein_mode>  (386) 
expansion

>  <fragmenstein_error>  (386) 


$$$$
C58914-P85
     RDKit          3D

 33 34  0  0  0  0  0  0  0  0999 V2000
    5.7841  -15.0064    6.6971 O   0  0  0  0  0  0  0  0  0  0  0  0
    6.3771  -15.5380    7.6190 C   0  0  0  0  0  0  0  0  0  0  0  0
    7.0298  -16.7155    7.5200 O   0  0  0  0  0  0  0  0  0  0  0  0
    6.4933  -14.9301    8.9440 C   0  0  0  0  0  0  0  0  0  0  0  0
    7.5253  -14.9498    9.7843 C   0  0  0  0  0  0  0  0  0  0  0  0
    7.3970  -14.2903   11.2200 C   0  0  0  0  0  0  0  0  0  0  0  0
    6.9088  -13.1809   11.6763 N   0  0  0  0  0  0  0  0  0  0  0  0
    6.5280  -12.5528   13.3827 C   0  0  0  0  0  0  0  0  0  0  0  0
    6.6959  -13.3873   14.2065 O   0  0  0  0  0  0  0  0  0  0  0  0
    6.0333  -10.5603   13.9904 C   0  0  0  0  0  0  0  0  0  0  0  0
    6.4464   -8.4283   14.3340 C   0  0  0  0  0  0  0  0  0  0  0  0
    7.3640   -7.0186   15.3679 C   0  0  0  0  0  0  0  0  0  0  0  0
    8.6024   -6.5320   14.9451 N   0  0  0  0  0  0  0  0  0  0  0  0
    9.1155   -4.8206   15.0967 C   0  0  0  0  0  0  0  0  0  0  0  0
    8.2533   -4.4167   16.0345 C   0  0  0  0  0  0  0  0  0  0  0  0
    7.1639   -5.8841   16.2758 N   0  0  0  0  0  0  0  0  0  0  0  0
    5.6565  -13.7923   10.9927 C   0  0  0  0  0  0  0  0  0  0  0  0
    5.4354  -14.0462    9.3918 C   0  0  0  0  0  0  0  0  0  0  0  0
    7.2468  -17.1181    8.3792 H   0  0  0  0  0  0  0  0  0  0  0  0
    8.4471  -15.4833    9.5492 H   0  0  0  0  0  0  0  0  0  0  0  0
    7.7758  -14.1066   12.1387 H   0  0  0  0  0  0  0  0  0  0  0  0
    8.1797  -13.7097   10.6886 H   0  0  0  0  0  0  0  0  0  0  0  0
    5.1660  -10.5503   13.3579 H   0  0  0  0  0  0  0  0  0  0  0  0
    5.2739  -10.7917   14.7401 H   0  0  0  0  0  0  0  0  0  0  0  0
    5.4751   -7.9322   14.1069 H   0  0  0  0  0  0  0  0  0  0  0  0
    7.0636   -8.0461   13.4619 H   0  0  0  0  0  0  0  0  0  0  0  0
   10.1790   -4.5318   14.9458 H   0  0  0  0  0  0  0  0  0  0  0  0
    7.8075   -3.4140   15.9532 H   0  0  0  0  0  0  0  0  0  0  0  0
    6.3126   -5.8133   16.8111 H   0  0  0  0  0  0  0  0  0  0  0  0
    5.5984  -14.6962   11.6128 H   0  0  0  0  0  0  0  0  0  0  0  0
    4.8332  -13.0726   11.0936 H   0  0  0  0  0  0  0  0  0  0  0  0
    4.4575  -14.4937    9.1767 H   0  0  0  0  0  0  0  0  0  0  0  0
    5.4523  -13.1092    8.8217 H   0  0  0  0  0  0  0  0  0  0  0  0
  1  2  2  0
  2  3  1  0
  2  4  1  0
  4  5  2  0
  5  6  1  0
  6  7  1  0
  7  8  1  0
  8  9  2  0
  8 10  1  0
 10 11  1  0
 11 12  1  0
 12 13  2  0
 13 14  1  0
 14 15  2  0
 15 16  1  0
  7 17  1  0
 17 18  1  0
 18  4  1  0
 16 12  1  0
  3 19  1  0
  5 20  1  0
  6 21  1  0
  6 22  1  0
 10 23  1  0
 10 24  1  0
 11 25  1  0
 11 26  1  0
 14 27  1  0
 15 28  1  0
 16 29  1  0
 17 30  1  0
 17 31  1  0
 18 32  1  0
 18 33  1  0
M  END
>  <Energy>  (387) 
764.65359295790415

>  <compound_id>  (387) 
58914

>  <target_id>  (387) 
1

>  <reference_id>  (387) 
85

>  <inspiration_ids>  (387) 
[85, 80]

>  <energy_score>  (387) 
775.5687202019237

>  <distance_score>  (387) 
5.500379158771248

>  <path>  (387) 
/opt/xchem-fragalysis-2/maxwin/BulkDock/SCRATCH/511024/C58914-P85/C58914-P85.minimised.mol

>  <scratch_subdir>  (387) 
/opt/xchem-fragalysis-2/maxwin/BulkDock/SCRATCH/511024/C58914-P85

>  <fragmenstein_runtime>  (387) 
11.050395965576172

>  <fragmenstein_outcome>  (387) 
too moved

>  <fragmenstein_mode>  (387) 
expansion

>  <fragmenstein_error>  (387) 


$$$$
C58914-P80
     RDKit          3D

 33 34  0  0  0  0  0  0  0  0999 V2000
    7.4060  -17.4887    7.5298 O   0  0  0  0  0  0  0  0  0  0  0  0
    6.4982  -17.0403    8.2035 C   0  0  0  0  0  0  0  0  0  0  0  0
    5.2508  -17.5323    8.1248 O   0  0  0  0  0  0  0  0  0  0  0  0
    6.5917  -15.9454    9.1832 C   0  0  0  0  0  0  0  0  0  0  0  0
    5.6341  -15.5297   10.0112 C   0  0  0  0  0  0  0  0  0  0  0  0
    5.7939  -14.5116   11.2563 C   0  0  0  0  0  0  0  0  0  0  0  0
    6.9545  -13.7029   12.1417 N   0  0  0  0  0  0  0  0  0  0  0  0
    6.7222  -12.1469   13.2559 C   0  0  0  0  0  0  0  0  0  0  0  0
    5.6956  -11.4665   13.4093 O   0  0  0  0  0  0  0  0  0  0  0  0
    8.4513  -11.1588   14.3043 C   0  0  0  0  0  0  0  0  0  0  0  0
    9.5578   -9.6247   15.2962 C   0  0  0  0  0  0  0  0  0  0  0  0
    9.9242   -7.5500   15.3826 C   0  0  0  0  0  0  0  0  0  0  0  0
   10.5020   -6.3584   14.7056 N   0  0  0  0  0  0  0  0  0  0  0  0
   10.9844   -4.7569   15.3146 C   0  0  0  0  0  0  0  0  0  0  0  0
   11.6787   -5.2661   16.3422 C   0  0  0  0  0  0  0  0  0  0  0  0
   11.4902   -6.7442   16.0175 N   0  0  0  0  0  0  0  0  0  0  0  0
    7.5409  -13.8656   10.3039 C   0  0  0  0  0  0  0  0  0  0  0  0
    7.7691  -15.1358    9.3204 C   0  0  0  0  0  0  0  0  0  0  0  0
    5.3068  -18.2802    7.4947 H   0  0  0  0  0  0  0  0  0  0  0  0
    4.6855  -16.0578    9.9086 H   0  0  0  0  0  0  0  0  0  0  0  0
    5.3768  -15.0211   12.0880 H   0  0  0  0  0  0  0  0  0  0  0  0
    5.0235  -13.7868   10.9858 H   0  0  0  0  0  0  0  0  0  0  0  0
    8.8832  -11.9097   15.0468 H   0  0  0  0  0  0  0  0  0  0  0  0
    9.3158  -11.2215   13.6465 H   0  0  0  0  0  0  0  0  0  0  0  0
   10.5758  -10.0437   15.2480 H   0  0  0  0  0  0  0  0  0  0  0  0
    9.2864   -9.8918   16.3248 H   0  0  0  0  0  0  0  0  0  0  0  0
   10.8628   -3.8959   14.6729 H   0  0  0  0  0  0  0  0  0  0  0  0
   12.5156   -4.9391   16.9422 H   0  0  0  0  0  0  0  0  0  0  0  0
   12.2674   -7.3779   16.1482 H   0  0  0  0  0  0  0  0  0  0  0  0
    8.5707  -14.0375   10.4387 H   0  0  0  0  0  0  0  0  0  0  0  0
    7.8044  -12.9671    9.6782 H   0  0  0  0  0  0  0  0  0  0  0  0
    8.0494  -14.7254    8.3388 H   0  0  0  0  0  0  0  0  0  0  0  0
    8.6171  -15.7785    9.5984 H   0  0  0  0  0  0  0  0  0  0  0  0
  1  2  2  0
  2  3  1  0
  2  4  1  0
  4  5  2  0
  5  6  1  0
  6  7  1  0
  7  8  1  0
  8  9  2  0
  8 10  1  0
 10 11  1  0
 11 12  1  0
 12 13  2  0
 13 14  1  0
 14 15  2  0
 15 16  1  0
  7 17  1  0
 17 18  1  0
 18  4  1  0
 16 12  1  0
  3 19  1  0
  5 20  1  0
  6 21  1  0
  6 22  1  0
 10 23  1  0
 10 24  1  0
 11 25  1  0
 11 26  1  0
 14 27  1  0
 15 28  1  0
 16 29  1  0
 17 30  1  0
 17 31  1  0
 18 32  1  0
 18 33  1  0
M  END
>  <Energy>  (388) 
950.57060296822806

>  <compound_id>  (388) 
58914

>  <target_id>  (388) 
1

>  <reference_id>  (388) 
80

>  <inspiration_ids>  (388) 
[85, 80]

>  <energy_score>  (388) 
961.4857302122714

>  <distance_score>  (388) 
5.08907164630015

>  <path>  (388) 
/opt/xchem-fragalysis-2/maxwin/BulkDock/SCRATCH/511024/C58914-P80/C58914-P80.minimised.mol

>  <scratch_subdir>  (388) 
/opt/xchem-fragalysis-2/maxwin/BulkDock/SCRATCH/511024/C58914-P80

>  <fragmenstein_runtime>  (388) 
7.83868145942688

>  <fragmenstein_outcome>  (388) 
too moved

>  <fragmenstein_mode>  (388) 
expansion

>  <fragmenstein_error>  (388) 


$$$$
C54443-P85
     RDKit          3D

 38 40  0  0  0  0  0  0  0  0999 V2000
    5.1906  -14.5753    8.2619 O   0  0  0  0  0  0  0  0  0  0  0  0
    5.8624  -14.5243    9.2768 C   0  0  0  0  0  0  0  0  0  0  0  0
    7.0039  -15.2301    9.3565 O   0  0  0  0  0  0  0  0  0  0  0  0
    5.5125  -13.7457   10.5079 C   0  0  0  0  0  0  0  0  0  0  0  0
    6.2373  -13.7395   11.7868 C   0  0  0  0  0  0  0  0  0  0  0  0
    5.9871  -12.4709   13.3040 C   0  0  0  0  0  0  0  0  0  0  0  0
    5.3263  -10.9814   12.8854 N   0  0  0  0  0  0  0  0  0  0  0  0
    5.2050   -9.6460   14.1787 C   0  0  0  0  0  0  0  0  0  0  0  0
    6.2648   -7.9077   14.4174 C   0  0  0  0  0  0  0  0  0  0  0  0
    6.7909   -6.8952   15.5541 N   0  0  0  0  0  0  0  0  0  0  0  0
    8.4594   -6.0962   15.1682 C   0  0  0  0  0  0  0  0  0  0  0  0
    7.5889   -5.5937   16.1174 C   0  0  0  0  0  0  0  0  0  0  0  0
    7.6071   -7.1694   15.1333 N   0  0  0  0  0  0  0  0  0  0  0  0
    7.8012   -3.5904   15.6437 C   0  0  0  0  0  0  0  0  0  0  0  0
    8.8866   -2.5305   15.6839 C   0  0  0  0  0  0  0  0  0  0  0  0
   10.1671   -3.2362   15.4607 C   0  0  0  0  0  0  0  0  0  0  0  0
    9.9783   -4.7116   15.0679 C   0  0  0  0  0  0  0  0  0  0  0  0
    4.1636  -11.0504   11.2255 C   0  0  0  0  0  0  0  0  0  0  0  0
    4.2484  -12.5684   10.1148 C   0  0  0  0  0  0  0  0  0  0  0  0
    7.0011  -15.6093    8.4507 H   0  0  0  0  0  0  0  0  0  0  0  0
    7.2564  -14.0118   11.6635 H   0  0  0  0  0  0  0  0  0  0  0  0
    6.9333  -12.2426   13.5267 H   0  0  0  0  0  0  0  0  0  0  0  0
    5.4766  -12.7411   14.1848 H   0  0  0  0  0  0  0  0  0  0  0  0
    4.2749   -9.1856   13.8848 H   0  0  0  0  0  0  0  0  0  0  0  0
    5.0349  -10.4349   14.8828 H   0  0  0  0  0  0  0  0  0  0  0  0
    8.3259   -7.5855   14.5171 H   0  0  0  0  0  0  0  0  0  0  0  0
    6.7776   -3.1941   15.4923 H   0  0  0  0  0  0  0  0  0  0  0  0
    7.8693   -3.4474   14.5558 H   0  0  0  0  0  0  0  0  0  0  0  0
    8.9018   -1.8305   16.5231 H   0  0  0  0  0  0  0  0  0  0  0  0
    8.7090   -1.7993   14.8852 H   0  0  0  0  0  0  0  0  0  0  0  0
   10.8541   -3.1572   16.3153 H   0  0  0  0  0  0  0  0  0  0  0  0
   10.7350   -2.7180   14.6764 H   0  0  0  0  0  0  0  0  0  0  0  0
   10.9355   -5.1634   15.5117 H   0  0  0  0  0  0  0  0  0  0  0  0
   10.6145   -4.7623   14.1592 H   0  0  0  0  0  0  0  0  0  0  0  0
    3.0913  -10.8350   11.4453 H   0  0  0  0  0  0  0  0  0  0  0  0
    4.3425  -10.1990   10.5475 H   0  0  0  0  0  0  0  0  0  0  0  0
    4.5732  -12.1879    9.1138 H   0  0  0  0  0  0  0  0  0  0  0  0
    3.2825  -12.8814    9.7143 H   0  0  0  0  0  0  0  0  0  0  0  0
  1  2  2  0
  2  3  1  0
  2  4  1  0
  4  5  2  0
  5  6  1  0
  6  7  1  0
  7  8  1  0
  8  9  1  0
  9 10  2  0
 10 11  1  0
 11 12  2  0
 12 13  1  0
 12 14  1  0
 14 15  1  0
 15 16  1  0
 16 17  1  0
  7 18  1  0
 18 19  1  0
 19  4  1  0
 13  9  1  0
 17 11  1  0
  3 20  1  0
  5 21  1  0
  6 22  1  0
  6 23  1  0
  8 24  1  0
  8 25  1  0
 13 26  1  0
 14 27  1  0
 14 28  1  0
 15 29  1  0
 15 30  1  0
 16 31  1  0
 16 32  1  0
 17 33  1  0
 17 34  1  0
 18 35  1  0
 18 36  1  0
 19 37  1  0
 19 38  1  0
M  END
>  <Energy>  (389) 
1276.207877387232

>  <compound_id>  (389) 
54443

>  <target_id>  (389) 
1

>  <reference_id>  (389) 
85

>  <inspiration_ids>  (389) 
[85, 80]

>  <energy_score>  (389) 
1252.3877856591503

>  <distance_score>  (389) 
6.287030090431218

>  <path>  (389) 
/opt/xchem-fragalysis-2/maxwin/BulkDock/SCRATCH/511024/C54443-P85/C54443-P85.minimised.mol

>  <scratch_subdir>  (389) 
/opt/xchem-fragalysis-2/maxwin/BulkDock/SCRATCH/511024/C54443-P85

>  <fragmenstein_runtime>  (389) 
9.060434103012085

>  <fragmenstein_outcome>  (389) 
too moved

>  <fragmenstein_mode>  (389) 
expansion

>  <fragmenstein_error>  (389) 


$$$$
C54443-P80
     RDKit          3D

 38 40  0  0  0  0  0  0  0  0999 V2000
    4.7361  -18.8389   10.3413 O   0  0  0  0  0  0  0  0  0  0  0  0
    4.5204  -17.7167    9.9274 C   0  0  0  0  0  0  0  0  0  0  0  0
    4.0718  -17.4147    8.6976 O   0  0  0  0  0  0  0  0  0  0  0  0
    4.7693  -16.5132   10.7176 C   0  0  0  0  0  0  0  0  0  0  0  0
    5.5360  -15.3085   10.4292 C   0  0  0  0  0  0  0  0  0  0  0  0
    6.0884  -13.9758   11.6263 C   0  0  0  0  0  0  0  0  0  0  0  0
    6.0452  -12.9826   13.2848 N   0  0  0  0  0  0  0  0  0  0  0  0
    5.8256  -10.8468   13.6236 C   0  0  0  0  0  0  0  0  0  0  0  0
    6.5320   -8.7288   13.8991 C   0  0  0  0  0  0  0  0  0  0  0  0
    6.6619   -7.5020   15.0264 N   0  0  0  0  0  0  0  0  0  0  0  0
    7.5366   -5.9624   15.5701 C   0  0  0  0  0  0  0  0  0  0  0  0
    8.4621   -6.4369   14.5481 C   0  0  0  0  0  0  0  0  0  0  0  0
    7.6354   -7.5474   13.2321 N   0  0  0  0  0  0  0  0  0  0  0  0
   10.1746   -5.1584   14.4244 C   0  0  0  0  0  0  0  0  0  0  0  0
   10.7787   -4.0454   15.2911 C   0  0  0  0  0  0  0  0  0  0  0  0
    9.6704   -3.1513   15.1430 C   0  0  0  0  0  0  0  0  0  0  0  0
    8.2262   -3.9992   15.3861 C   0  0  0  0  0  0  0  0  0  0  0  0
    5.5049  -15.0072   13.3258 C   0  0  0  0  0  0  0  0  0  0  0  0
    4.3591  -16.4939   12.5718 C   0  0  0  0  0  0  0  0  0  0  0  0
    3.7301  -16.5041    8.6483 H   0  0  0  0  0  0  0  0  0  0  0  0
    6.1301  -15.2291    9.5287 H   0  0  0  0  0  0  0  0  0  0  0  0
    7.1137  -13.8670   11.2989 H   0  0  0  0  0  0  0  0  0  0  0  0
    5.1148  -13.6151   11.2424 H   0  0  0  0  0  0  0  0  0  0  0  0
    6.7247  -10.7450   14.1299 H   0  0  0  0  0  0  0  0  0  0  0  0
    4.9326  -10.8700   14.2518 H   0  0  0  0  0  0  0  0  0  0  0  0
    7.9809   -7.5962   12.2907 H   0  0  0  0  0  0  0  0  0  0  0  0
   10.7027   -6.0422   14.9539 H   0  0  0  0  0  0  0  0  0  0  0  0
   10.7038   -4.9977   13.4588 H   0  0  0  0  0  0  0  0  0  0  0  0
   11.0604   -4.3033   16.3164 H   0  0  0  0  0  0  0  0  0  0  0  0
   11.6838   -3.6239   14.8381 H   0  0  0  0  0  0  0  0  0  0  0  0
    9.7266   -2.7571   14.1715 H   0  0  0  0  0  0  0  0  0  0  0  0
    9.7727   -2.2079   15.7092 H   0  0  0  0  0  0  0  0  0  0  0  0
    7.9305   -3.4363   14.4197 H   0  0  0  0  0  0  0  0  0  0  0  0
    7.4851   -3.3030   15.7682 H   0  0  0  0  0  0  0  0  0  0  0  0
    5.0221  -14.6532   14.0921 H   0  0  0  0  0  0  0  0  0  0  0  0
    5.4102  -15.8033   14.2223 H   0  0  0  0  0  0  0  0  0  0  0  0
    4.8206  -17.4290   13.0310 H   0  0  0  0  0  0  0  0  0  0  0  0
    3.3999  -16.8915   12.8794 H   0  0  0  0  0  0  0  0  0  0  0  0
  1  2  2  0
  2  3  1  0
  2  4  1  0
  4  5  2  0
  5  6  1  0
  6  7  1  0
  7  8  1  0
  8  9  1  0
  9 10  2  0
 10 11  1  0
 11 12  2  0
 12 13  1  0
 12 14  1  0
 14 15  1  0
 15 16  1  0
 16 17  1  0
  7 18  1  0
 18 19  1  0
 19  4  1  0
 13  9  1  0
 17 11  1  0
  3 20  1  0
  5 21  1  0
  6 22  1  0
  6 23  1  0
  8 24  1  0
  8 25  1  0
 13 26  1  0
 14 27  1  0
 14 28  1  0
 15 29  1  0
 15 30  1  0
 16 31  1  0
 16 32  1  0
 17 33  1  0
 17 34  1  0
 18 35  1  0
 18 36  1  0
 19 37  1  0
 19 38  1  0
M  END
>  <Energy>  (390) 
1710.3930970739063

>  <compound_id>  (390) 
54443

>  <target_id>  (390) 
1

>  <reference_id>  (390) 
80

>  <inspiration_ids>  (390) 
[85, 80]

>  <energy_score>  (390) 
1686.573005345871

>  <distance_score>  (390) 
6.0110931923416535

>  <path>  (390) 
/opt/xchem-fragalysis-2/maxwin/BulkDock/SCRATCH/511024/C54443-P80/C54443-P80.minimised.mol

>  <scratch_subdir>  (390) 
/opt/xchem-fragalysis-2/maxwin/BulkDock/SCRATCH/511024/C54443-P80

>  <fragmenstein_runtime>  (390) 
9.183435440063477

>  <fragmenstein_outcome>  (390) 
too moved

>  <fragmenstein_mode>  (390) 
expansion

>  <fragmenstein_error>  (390) 


$$$$
C58917-P85
     RDKit          3D

 39 40  0  0  0  0  0  0  0  0999 V2000
    2.1662  -18.3411    7.5711 C   0  0  0  0  0  0  0  0  0  0  0  0
    3.5371  -17.9926    7.7527 O   0  0  0  0  0  0  0  0  0  0  0  0
    3.6610  -16.5929    7.8992 C   0  0  0  0  0  0  0  0  0  0  0  0
    5.0509  -16.2616    8.2550 C   0  0  0  0  0  0  0  0  0  0  0  0
    5.4860  -15.8886    9.4400 C   0  0  0  0  0  0  0  0  0  0  0  0
    7.2293  -15.2494    9.2552 C   0  0  0  0  0  0  0  0  0  0  0  0
    7.3454  -14.7539   10.4642 N   0  0  0  0  0  0  0  0  0  0  0  0
    6.2017  -13.8328   11.1223 C   0  0  0  0  0  0  0  0  0  0  0  0
    5.1763  -13.5586   10.7734 O   0  0  0  0  0  0  0  0  0  0  0  0
    6.7986  -13.0313   12.6460 N   0  0  0  0  0  0  0  0  0  0  0  0
    6.4971  -13.7394   13.6964 C   0  0  0  0  0  0  0  0  0  0  0  0
    6.0060  -11.6421   13.7391 C   0  0  0  0  0  0  0  0  0  0  0  0
    5.6115  -10.0838   14.1638 C   0  0  0  0  0  0  0  0  0  0  0  0
    4.4042   -9.5704   13.9621 N   0  0  0  0  0  0  0  0  0  0  0  0
    4.4700   -8.1337   13.8551 C   0  0  0  0  0  0  0  0  0  0  0  0
    5.6767   -7.5870   14.1247 C   0  0  0  0  0  0  0  0  0  0  0  0
    6.5416   -8.5170   14.3240 N   0  0  0  0  0  0  0  0  0  0  0  0
    7.4946  -15.9468    8.8866 C   0  0  0  0  0  0  0  0  0  0  0  0
    6.3237  -16.2611    7.5387 C   0  0  0  0  0  0  0  0  0  0  0  0
    1.7115  -17.7747    6.7527 H   0  0  0  0  0  0  0  0  0  0  0  0
    2.1131  -19.4071    7.3341 H   0  0  0  0  0  0  0  0  0  0  0  0
    1.6093  -18.1650    8.4970 H   0  0  0  0  0  0  0  0  0  0  0  0
    2.9865  -16.2514    8.6961 H   0  0  0  0  0  0  0  0  0  0  0  0
    3.3645  -16.0670    6.9876 H   0  0  0  0  0  0  0  0  0  0  0  0
    4.9495  -16.1076   10.3347 H   0  0  0  0  0  0  0  0  0  0  0  0
    6.4893  -14.4019    8.6997 H   0  0  0  0  0  0  0  0  0  0  0  0
    7.6954  -14.1978    9.0654 H   0  0  0  0  0  0  0  0  0  0  0  0
    7.2627  -13.8417   14.4690 H   0  0  0  0  0  0  0  0  0  0  0  0
    5.7432  -13.3119   14.1950 H   0  0  0  0  0  0  0  0  0  0  0  0
    5.9698  -14.6146   13.3175 H   0  0  0  0  0  0  0  0  0  0  0  0
    5.1071  -11.9639   14.2804 H   0  0  0  0  0  0  0  0  0  0  0  0
    5.5007  -11.2418   12.9016 H   0  0  0  0  0  0  0  0  0  0  0  0
    3.8879   -7.6242   13.1211 H   0  0  0  0  0  0  0  0  0  0  0  0
    5.9606   -6.8827   14.8782 H   0  0  0  0  0  0  0  0  0  0  0  0
    7.4157   -8.5450   13.8699 H   0  0  0  0  0  0  0  0  0  0  0  0
    7.5416  -17.0717    9.3417 H   0  0  0  0  0  0  0  0  0  0  0  0
    8.6355  -16.1095    8.5127 H   0  0  0  0  0  0  0  0  0  0  0  0
    6.6360  -17.2452    7.1860 H   0  0  0  0  0  0  0  0  0  0  0  0
    6.4211  -15.4687    6.7922 H   0  0  0  0  0  0  0  0  0  0  0  0
  1  2  1  0
  2  3  1  0
  3  4  1  0
  4  5  2  0
  5  6  1  0
  6  7  1  0
  7  8  1  0
  8  9  2  0
  8 10  1  0
 10 11  1  0
 10 12  1  0
 12 13  1  0
 13 14  2  0
 14 15  1  0
 15 16  2  0
 16 17  1  0
  7 18  1  0
 18 19  1  0
 19  4  1  0
 17 13  1  0
  1 20  1  0
  1 21  1  0
  1 22  1  0
  3 23  1  0
  3 24  1  0
  5 25  1  0
  6 26  1  0
  6 27  1  0
 11 28  1  0
 11 29  1  0
 11 30  1  0
 12 31  1  0
 12 32  1  0
 15 33  1  0
 16 34  1  0
 17 35  1  0
 18 36  1  0
 18 37  1  0
 19 38  1  0
 19 39  1  0
M  END
>  <Energy>  (391) 
1162.0401654660088

>  <compound_id>  (391) 
58917

>  <target_id>  (391) 
1

>  <reference_id>  (391) 
85

>  <inspiration_ids>  (391) 
[85, 80]

>  <energy_score>  (391) 
1166.7095570769284

>  <distance_score>  (391) 
7.10127885435001

>  <path>  (391) 
/opt/xchem-fragalysis-2/maxwin/BulkDock/SCRATCH/511024/C58917-P85/C58917-P85.minimised.mol

>  <scratch_subdir>  (391) 
/opt/xchem-fragalysis-2/maxwin/BulkDock/SCRATCH/511024/C58917-P85

>  <fragmenstein_runtime>  (391) 
10.857128381729126

>  <fragmenstein_outcome>  (391) 
too moved

>  <fragmenstein_mode>  (391) 
expansion

>  <fragmenstein_error>  (391) 


$$$$
C58917-P80
     RDKit          3D

 39 40  0  0  0  0  0  0  0  0999 V2000
    3.6320  -17.4264    6.9609 C   0  0  0  0  0  0  0  0  0  0  0  0
    3.2736  -17.4995    8.3271 O   0  0  0  0  0  0  0  0  0  0  0  0
    4.1994  -16.8526    9.1943 C   0  0  0  0  0  0  0  0  0  0  0  0
    3.8190  -15.4314    9.3062 C   0  0  0  0  0  0  0  0  0  0  0  0
    4.3264  -14.2417    9.6400 C   0  0  0  0  0  0  0  0  0  0  0  0
    2.9952  -12.8583    9.5861 C   0  0  0  0  0  0  0  0  0  0  0  0
    3.2299  -11.6039   10.3002 N   0  0  0  0  0  0  0  0  0  0  0  0
    2.2371  -10.3361   10.9037 C   0  0  0  0  0  0  0  0  0  0  0  0
    1.0930  -10.1833   11.0079 O   0  0  0  0  0  0  0  0  0  0  0  0
    3.2927   -9.5986   11.3019 N   0  0  0  0  0  0  0  0  0  0  0  0
    3.8586  -10.1692   13.1063 C   0  0  0  0  0  0  0  0  0  0  0  0
    3.4376   -7.9189   12.0835 C   0  0  0  0  0  0  0  0  0  0  0  0
    4.9926   -7.7900   13.3624 C   0  0  0  0  0  0  0  0  0  0  0  0
    5.5106   -7.0681   14.3209 N   0  0  0  0  0  0  0  0  0  0  0  0
    6.4910   -6.9891   15.3321 C   0  0  0  0  0  0  0  0  0  0  0  0
    7.1128   -7.7489   14.4702 C   0  0  0  0  0  0  0  0  0  0  0  0
    6.4758   -7.8457   13.1979 N   0  0  0  0  0  0  0  0  0  0  0  0
    2.6460  -12.9887    9.8992 C   0  0  0  0  0  0  0  0  0  0  0  0
    2.5078  -14.9172    9.3405 C   0  0  0  0  0  0  0  0  0  0  0  0
    2.8347  -17.8832    6.3692 H   0  0  0  0  0  0  0  0  0  0  0  0
    3.7559  -16.3914    6.6448 H   0  0  0  0  0  0  0  0  0  0  0  0
    4.5571  -17.9834    6.7858 H   0  0  0  0  0  0  0  0  0  0  0  0
    4.0950  -17.3330   10.1724 H   0  0  0  0  0  0  0  0  0  0  0  0
    5.2328  -16.9977    8.8618 H   0  0  0  0  0  0  0  0  0  0  0  0
    5.3290  -14.1341    9.9866 H   0  0  0  0  0  0  0  0  0  0  0  0
    3.9919  -12.3734    8.9825 H   0  0  0  0  0  0  0  0  0  0  0  0
    2.5367  -12.3634    8.3931 H   0  0  0  0  0  0  0  0  0  0  0  0
    4.0949   -9.3917   13.7562 H   0  0  0  0  0  0  0  0  0  0  0  0
    3.1112  -10.7097   13.6433 H   0  0  0  0  0  0  0  0  0  0  0  0
    4.7808  -10.8016   13.1434 H   0  0  0  0  0  0  0  0  0  0  0  0
    2.6124   -7.2143   11.8120 H   0  0  0  0  0  0  0  0  0  0  0  0
    3.9183   -7.3792   11.2640 H   0  0  0  0  0  0  0  0  0  0  0  0
    6.5688   -6.3047   16.1609 H   0  0  0  0  0  0  0  0  0  0  0  0
    8.1440   -7.3573   14.3565 H   0  0  0  0  0  0  0  0  0  0  0  0
    7.0177   -7.8539   12.3492 H   0  0  0  0  0  0  0  0  0  0  0  0
    3.4868  -13.1375   11.0658 H   0  0  0  0  0  0  0  0  0  0  0  0
    1.6489  -12.8606   10.7353 H   0  0  0  0  0  0  0  0  0  0  0  0
    1.9071  -15.5293   10.0448 H   0  0  0  0  0  0  0  0  0  0  0  0
    1.9391  -15.0486    8.4079 H   0  0  0  0  0  0  0  0  0  0  0  0
  1  2  1  0
  2  3  1  0
  3  4  1  0
  4  5  2  0
  5  6  1  0
  6  7  1  0
  7  8  1  0
  8  9  2  0
  8 10  1  0
 10 11  1  0
 10 12  1  0
 12 13  1  0
 13 14  2  0
 14 15  1  0
 15 16  2  0
 16 17  1  0
  7 18  1  0
 18 19  1  0
 19  4  1  0
 17 13  1  0
  1 20  1  0
  1 21  1  0
  1 22  1  0
  3 23  1  0
  3 24  1  0
  5 25  1  0
  6 26  1  0
  6 27  1  0
 11 28  1  0
 11 29  1  0
 11 30  1  0
 12 31  1  0
 12 32  1  0
 15 33  1  0
 16 34  1  0
 17 35  1  0
 18 36  1  0
 18 37  1  0
 19 38  1  0
 19 39  1  0
M  END
>  <Energy>  (392) 
1279.3210917055551

>  <compound_id>  (392) 
58917

>  <target_id>  (392) 
1

>  <reference_id>  (392) 
80

>  <inspiration_ids>  (392) 
[85, 80]

>  <energy_score>  (392) 
1283.9904833164794

>  <distance_score>  (392) 
6.15258803338471

>  <path>  (392) 
/opt/xchem-fragalysis-2/maxwin/BulkDock/SCRATCH/511024/C58917-P80/C58917-P80.minimised.mol

>  <scratch_subdir>  (392) 
/opt/xchem-fragalysis-2/maxwin/BulkDock/SCRATCH/511024/C58917-P80

>  <fragmenstein_runtime>  (392) 
12.64937162399292

>  <fragmenstein_outcome>  (392) 
too moved

>  <fragmenstein_mode>  (392) 
expansion

>  <fragmenstein_error>  (392) 


$$$$
C58918-P85
     RDKit          3D

 32 33  0  0  0  0  0  0  0  0999 V2000
    3.3655  -15.0654    7.6119 C   0  0  0  0  0  0  0  0  0  0  0  0
    4.2949  -13.9890    7.6810 O   0  0  0  0  0  0  0  0  0  0  0  0
    3.6108  -12.7451    7.8224 C   0  0  0  0  0  0  0  0  0  0  0  0
    4.5488  -11.6021    8.0774 C   0  0  0  0  0  0  0  0  0  0  0  0
    5.8280  -11.6204    8.4583 C   0  0  0  0  0  0  0  0  0  0  0  0
    6.9222  -10.3409    8.7048 C   0  0  0  0  0  0  0  0  0  0  0  0
    6.8243   -8.8391    8.8242 N   0  0  0  0  0  0  0  0  0  0  0  0
    6.9469   -7.1319   10.4052 S   0  0  0  0  0  0  0  0  0  0  0  0
    5.5478   -7.1845   10.6951 O   0  0  0  0  0  0  0  0  0  0  0  0
    7.0383   -5.9503    9.4279 O   0  0  0  0  0  0  0  0  0  0  0  0
    8.0319   -6.7861   12.6790 C   0  0  0  0  0  0  0  0  0  0  0  0
    8.5935   -6.6638   14.4097 N   0  0  0  0  0  0  0  0  0  0  0  0
    9.5750   -4.9584   14.9129 C   0  0  0  0  0  0  0  0  0  0  0  0
    8.7354   -3.9900   15.0902 C   0  0  0  0  0  0  0  0  0  0  0  0
    8.5450   -5.7337   14.3228 N   0  0  0  0  0  0  0  0  0  0  0  0
    5.3246   -8.9496    8.1970 C   0  0  0  0  0  0  0  0  0  0  0  0
    4.2458  -10.2629    7.5654 C   0  0  0  0  0  0  0  0  0  0  0  0
    2.8427  -15.1743    8.5655 H   0  0  0  0  0  0  0  0  0  0  0  0
    2.6470  -14.9134    6.8013 H   0  0  0  0  0  0  0  0  0  0  0  0
    3.9231  -15.9863    7.4271 H   0  0  0  0  0  0  0  0  0  0  0  0
    3.0332  -12.5614    6.9091 H   0  0  0  0  0  0  0  0  0  0  0  0
    2.9358  -12.8074    8.6750 H   0  0  0  0  0  0  0  0  0  0  0  0
    6.1928  -12.6405    8.5470 H   0  0  0  0  0  0  0  0  0  0  0  0
    7.9902  -10.3945    8.5891 H   0  0  0  0  0  0  0  0  0  0  0  0
    6.7012  -10.2186    7.7184 H   0  0  0  0  0  0  0  0  0  0  0  0
   10.6993   -5.0048   15.0450 H   0  0  0  0  0  0  0  0  0  0  0  0
    7.7999   -3.4117   15.0621 H   0  0  0  0  0  0  0  0  0  0  0  0
    8.1385   -6.1880   15.2996 H   0  0  0  0  0  0  0  0  0  0  0  0
    5.6283   -8.5134    7.2820 H   0  0  0  0  0  0  0  0  0  0  0  0
    4.8657   -8.4006    8.9479 H   0  0  0  0  0  0  0  0  0  0  0  0
    3.1468  -10.1964    7.6216 H   0  0  0  0  0  0  0  0  0  0  0  0
    4.1278  -10.1134    6.4904 H   0  0  0  0  0  0  0  0  0  0  0  0
  1  2  1  0
  2  3  1  0
  3  4  1  0
  4  5  2  0
  5  6  1  0
  6  7  1  0
  7  8  1  0
  8  9  2  0
  8 10  2  0
  8 11  1  0
 11 12  2  0
 12 13  1  0
 13 14  2  0
 14 15  1  0
  7 16  1  0
 16 17  1  0
 17  4  1  0
 15 11  1  0
  1 18  1  0
  1 19  1  0
  1 20  1  0
  3 21  1  0
  3 22  1  0
  5 23  1  0
  6 24  1  0
  6 25  1  0
 13 26  1  0
 14 27  1  0
 15 28  1  0
 16 29  1  0
 16 30  1  0
 17 31  1  0
 17 32  1  0
M  END
>  <Energy>  (393) 
1367.4503000650714

>  <compound_id>  (393) 
58918

>  <target_id>  (393) 
1

>  <reference_id>  (393) 
85

>  <inspiration_ids>  (393) 
[85, 80]

>  <energy_score>  (393) 
1342.4764293742592

>  <distance_score>  (393) 
6.223874079347278

>  <path>  (393) 
/opt/xchem-fragalysis-2/maxwin/BulkDock/SCRATCH/511024/C58918-P85/C58918-P85.minimised.mol

>  <scratch_subdir>  (393) 
/opt/xchem-fragalysis-2/maxwin/BulkDock/SCRATCH/511024/C58918-P85

>  <fragmenstein_runtime>  (393) 
6.574629306793213

>  <fragmenstein_outcome>  (393) 
too moved

>  <fragmenstein_mode>  (393) 
expansion

>  <fragmenstein_error>  (393) 


$$$$
C58918-P80
     RDKit          3D

 32 33  0  0  0  0  0  0  0  0999 V2000
    2.0891  -17.1847    6.9400 C   0  0  0  0  0  0  0  0  0  0  0  0
    2.4918  -17.2798    8.2966 O   0  0  0  0  0  0  0  0  0  0  0  0
    3.9024  -17.3797    8.4836 C   0  0  0  0  0  0  0  0  0  0  0  0
    4.4107  -16.1874    9.2606 C   0  0  0  0  0  0  0  0  0  0  0  0
    5.7061  -16.0137    9.6194 C   0  0  0  0  0  0  0  0  0  0  0  0
    6.3862  -14.7232   10.3049 C   0  0  0  0  0  0  0  0  0  0  0  0
    5.4303  -14.0003   11.4152 N   0  0  0  0  0  0  0  0  0  0  0  0
    5.9234  -12.7878   13.3253 S   0  0  0  0  0  0  0  0  0  0  0  0
    6.8500  -13.5818   14.0459 O   0  0  0  0  0  0  0  0  0  0  0  0
    4.8113  -12.5989   14.2040 O   0  0  0  0  0  0  0  0  0  0  0  0
    5.5793  -10.9202   13.6270 C   0  0  0  0  0  0  0  0  0  0  0  0
    6.5487  -10.0669   13.8660 N   0  0  0  0  0  0  0  0  0  0  0  0
    6.0887   -8.3784   13.9422 C   0  0  0  0  0  0  0  0  0  0  0  0
    4.7072   -8.5631   13.7504 C   0  0  0  0  0  0  0  0  0  0  0  0
    4.4187  -10.1367   13.7800 N   0  0  0  0  0  0  0  0  0  0  0  0
    4.1268  -13.6084   10.2122 C   0  0  0  0  0  0  0  0  0  0  0  0
    3.4446  -15.0615    9.5064 C   0  0  0  0  0  0  0  0  0  0  0  0
    2.4950  -16.2794    6.4890 H   0  0  0  0  0  0  0  0  0  0  0  0
    2.4148  -18.0673    6.3816 H   0  0  0  0  0  0  0  0  0  0  0  0
    0.9976  -17.1308    6.9059 H   0  0  0  0  0  0  0  0  0  0  0  0
    4.0888  -18.2929    9.0584 H   0  0  0  0  0  0  0  0  0  0  0  0
    4.4280  -17.4586    7.5241 H   0  0  0  0  0  0  0  0  0  0  0  0
    6.4122  -16.7639    9.2583 H   0  0  0  0  0  0  0  0  0  0  0  0
    6.6710  -14.1826    9.4089 H   0  0  0  0  0  0  0  0  0  0  0  0
    7.3853  -14.7822   10.6503 H   0  0  0  0  0  0  0  0  0  0  0  0
    6.8135   -7.7916   13.4426 H   0  0  0  0  0  0  0  0  0  0  0  0
    4.0288   -7.9763   13.2185 H   0  0  0  0  0  0  0  0  0  0  0  0
    3.4685  -10.4229   13.6348 H   0  0  0  0  0  0  0  0  0  0  0  0
    3.4119  -12.8785   10.5986 H   0  0  0  0  0  0  0  0  0  0  0  0
    4.5863  -13.1173    9.3905 H   0  0  0  0  0  0  0  0  0  0  0  0
    2.6729  -15.6148   10.0663 H   0  0  0  0  0  0  0  0  0  0  0  0
    2.6924  -14.7866    8.8077 H   0  0  0  0  0  0  0  0  0  0  0  0
  1  2  1  0
  2  3  1  0
  3  4  1  0
  4  5  2  0
  5  6  1  0
  6  7  1  0
  7  8  1  0
  8  9  2  0
  8 10  2  0
  8 11  1  0
 11 12  2  0
 12 13  1  0
 13 14  2  0
 14 15  1  0
  7 16  1  0
 16 17  1  0
 17  4  1  0
 15 11  1  0
  1 18  1  0
  1 19  1  0
  1 20  1  0
  3 21  1  0
  3 22  1  0
  5 23  1  0
  6 24  1  0
  6 25  1  0
 13 26  1  0
 14 27  1  0
 15 28  1  0
 16 29  1  0
 16 30  1  0
 17 31  1  0
 17 32  1  0
M  END
>  <Energy>  (394) 
356.69446540539644

>  <compound_id>  (394) 
58918

>  <target_id>  (394) 
1

>  <reference_id>  (394) 
80

>  <inspiration_ids>  (394) 
[85, 80]

>  <energy_score>  (394) 
331.7205947145932

>  <distance_score>  (394) 
6.865519265584186

>  <path>  (394) 
/opt/xchem-fragalysis-2/maxwin/BulkDock/SCRATCH/511024/C58918-P80/C58918-P80.minimised.mol

>  <scratch_subdir>  (394) 
/opt/xchem-fragalysis-2/maxwin/BulkDock/SCRATCH/511024/C58918-P80

>  <fragmenstein_runtime>  (394) 
8.409097671508789

>  <fragmenstein_outcome>  (394) 
too moved

>  <fragmenstein_mode>  (394) 
expansion

>  <fragmenstein_error>  (394) 


$$$$
C54444-P85
     RDKit          3D

 43 45  0  0  0  0  0  0  0  0999 V2000
    3.3678  -10.4801   10.8772 O   0  0  0  0  0  0  0  0  0  0  0  0
    4.2100  -11.2633   11.1956 C   0  0  0  0  0  0  0  0  0  0  0  0
    5.2385  -10.9690   12.8603 N   0  0  0  0  0  0  0  0  0  0  0  0
    5.0985   -9.7057   14.1177 C   0  0  0  0  0  0  0  0  0  0  0  0
    6.2621   -8.0854   14.3872 C   0  0  0  0  0  0  0  0  0  0  0  0
    7.3708   -7.5754   15.1151 C   0  0  0  0  0  0  0  0  0  0  0  0
    7.2470   -6.5058   16.0306 N   0  0  0  0  0  0  0  0  0  0  0  0
    6.0101   -6.4861   16.2302 C   0  0  0  0  0  0  0  0  0  0  0  0
    5.7351   -6.9225   14.8472 N   0  0  0  0  0  0  0  0  0  0  0  0
    4.4311  -12.6716    9.7168 C   0  0  0  0  0  0  0  0  0  0  0  0
    4.9058  -14.2972    9.3704 C   0  0  0  0  0  0  0  0  0  0  0  0
    6.1571  -14.8243    9.3223 C   0  0  0  0  0  0  0  0  0  0  0  0
    6.4414  -16.1620    8.6749 C   0  0  0  0  0  0  0  0  0  0  0  0
    5.5627  -17.2411    9.0677 N   0  0  0  0  0  0  0  0  0  0  0  0
    4.1685  -16.8267    9.2251 C   0  0  0  0  0  0  0  0  0  0  0  0
    3.8489  -15.3621    8.8463 C   0  0  0  0  0  0  0  0  0  0  0  0
    3.0919  -12.4876    8.9060 C   0  0  0  0  0  0  0  0  0  0  0  0
    2.8773  -12.4755    7.3663 C   0  0  0  0  0  0  0  0  0  0  0  0
    3.7414  -13.3541    6.7056 O   0  0  0  0  0  0  0  0  0  0  0  0
    5.0661  -13.0673    7.0803 C   0  0  0  0  0  0  0  0  0  0  0  0
    5.1926  -12.1396    8.3719 C   0  0  0  0  0  0  0  0  0  0  0  0
    5.8347  -11.7536   13.0287 H   0  0  0  0  0  0  0  0  0  0  0  0
    4.9917  -10.4736   14.8562 H   0  0  0  0  0  0  0  0  0  0  0  0
    4.2011   -9.1900   13.8629 H   0  0  0  0  0  0  0  0  0  0  0  0
    8.3581   -7.2717   14.8310 H   0  0  0  0  0  0  0  0  0  0  0  0
    7.9428   -5.8055   16.1612 H   0  0  0  0  0  0  0  0  0  0  0  0
    5.3317   -6.0206   16.9412 H   0  0  0  0  0  0  0  0  0  0  0  0
    7.0383  -14.2573    9.5669 H   0  0  0  0  0  0  0  0  0  0  0  0
    7.4773  -16.4541    8.8829 H   0  0  0  0  0  0  0  0  0  0  0  0
    6.4059  -16.0448    7.5863 H   0  0  0  0  0  0  0  0  0  0  0  0
    5.8721  -17.7152    9.9100 H   0  0  0  0  0  0  0  0  0  0  0  0
    3.5337  -17.4974    8.6348 H   0  0  0  0  0  0  0  0  0  0  0  0
    3.8843  -16.9881   10.2723 H   0  0  0  0  0  0  0  0  0  0  0  0
    2.8460  -15.1790    9.2210 H   0  0  0  0  0  0  0  0  0  0  0  0
    3.7893  -15.3348    7.7572 H   0  0  0  0  0  0  0  0  0  0  0  0
    2.4800  -13.2776    9.2621 H   0  0  0  0  0  0  0  0  0  0  0  0
    2.7313  -11.5072    9.1641 H   0  0  0  0  0  0  0  0  0  0  0  0
    3.0026  -11.4634    6.9578 H   0  0  0  0  0  0  0  0  0  0  0  0
    1.8600  -12.7694    7.1009 H   0  0  0  0  0  0  0  0  0  0  0  0
    5.6047  -14.0074    7.1511 H   0  0  0  0  0  0  0  0  0  0  0  0
    5.5385  -12.7117    6.1827 H   0  0  0  0  0  0  0  0  0  0  0  0
    6.2300  -11.9660    8.5249 H   0  0  0  0  0  0  0  0  0  0  0  0
    4.8087  -11.1243    8.1986 H   0  0  0  0  0  0  0  0  0  0  0  0
  1  2  2  0
  2  3  1  0
  3  4  1  0
  4  5  1  0
  5  6  2  0
  6  7  1  0
  7  8  1  0
  8  9  2  0
  2 10  1  0
 10 11  1  0
 11 12  2  0
 12 13  1  0
 13 14  1  0
 14 15  1  0
 15 16  1  0
 10 17  1  0
 17 18  1  0
 18 19  1  0
 19 20  1  0
 20 21  1  0
  9  5  1  0
 21 10  1  0
 16 11  1  0
  3 22  1  0
  4 23  1  0
  4 24  1  0
  6 25  1  0
  7 26  1  0
  8 27  1  0
 12 28  1  0
 13 29  1  0
 13 30  1  0
 14 31  1  0
 15 32  1  0
 15 33  1  0
 16 34  1  0
 16 35  1  0
 17 36  1  0
 17 37  1  0
 18 38  1  0
 18 39  1  0
 20 40  1  0
 20 41  1  0
 21 42  1  0
 21 43  1  0
M  END
>  <Energy>  (395) 
580.64394996041199

>  <compound_id>  (395) 
54444

>  <target_id>  (395) 
1

>  <reference_id>  (395) 
85

>  <inspiration_ids>  (395) 
[85, 80]

>  <energy_score>  (395) 
499.00771412740045

>  <distance_score>  (395) 
5.435806324662054

>  <path>  (395) 
/opt/xchem-fragalysis-2/maxwin/BulkDock/SCRATCH/511024/C54444-P85/C54444-P85.minimised.mol

>  <scratch_subdir>  (395) 
/opt/xchem-fragalysis-2/maxwin/BulkDock/SCRATCH/511024/C54444-P85

>  <fragmenstein_runtime>  (395) 
13.547183513641357

>  <fragmenstein_outcome>  (395) 
too moved

>  <fragmenstein_mode>  (395) 
expansion

>  <fragmenstein_error>  (395) 


$$$$
C54444-P80
     RDKit          3D

 43 45  0  0  0  0  0  0  0  0999 V2000
    3.9173  -12.8952   10.7636 O   0  0  0  0  0  0  0  0  0  0  0  0
    4.7928  -13.4570   11.4376 C   0  0  0  0  0  0  0  0  0  0  0  0
    5.4703  -12.5494   13.1031 N   0  0  0  0  0  0  0  0  0  0  0  0
    5.0860  -10.7474   13.8777 C   0  0  0  0  0  0  0  0  0  0  0  0
    5.4149   -8.7103   13.9690 C   0  0  0  0  0  0  0  0  0  0  0  0
    6.6666   -7.9840   13.4026 C   0  0  0  0  0  0  0  0  0  0  0  0
    7.6193   -7.4363   14.7822 N   0  0  0  0  0  0  0  0  0  0  0  0
    6.6287   -6.9366   15.4926 C   0  0  0  0  0  0  0  0  0  0  0  0
    6.3086   -7.8236   14.5900 N   0  0  0  0  0  0  0  0  0  0  0  0
    5.3792  -15.1886   10.4826 C   0  0  0  0  0  0  0  0  0  0  0  0
    4.8629  -17.0505   10.5940 C   0  0  0  0  0  0  0  0  0  0  0  0
    5.6357  -18.1342   10.2330 C   0  0  0  0  0  0  0  0  0  0  0  0
    5.3445  -19.6075   10.3493 C   0  0  0  0  0  0  0  0  0  0  0  0
    4.2763  -19.9339   11.2658 N   0  0  0  0  0  0  0  0  0  0  0  0
    3.1484  -19.0595   10.9964 C   0  0  0  0  0  0  0  0  0  0  0  0
    3.5272  -17.5821   11.2360 C   0  0  0  0  0  0  0  0  0  0  0  0
    4.0678  -15.4469    9.3294 C   0  0  0  0  0  0  0  0  0  0  0  0
    4.3029  -16.5356    8.1785 C   0  0  0  0  0  0  0  0  0  0  0  0
    5.6534  -16.6060    7.6723 O   0  0  0  0  0  0  0  0  0  0  0  0
    6.8271  -16.1422    8.3820 C   0  0  0  0  0  0  0  0  0  0  0  0
    6.6967  -15.1371    9.5680 C   0  0  0  0  0  0  0  0  0  0  0  0
    6.2372  -13.0980   13.4886 H   0  0  0  0  0  0  0  0  0  0  0  0
    6.1253  -10.6859   13.8685 H   0  0  0  0  0  0  0  0  0  0  0  0
    4.2207  -10.5159   13.3082 H   0  0  0  0  0  0  0  0  0  0  0  0
    7.2841   -7.9492   12.5141 H   0  0  0  0  0  0  0  0  0  0  0  0
    8.6168   -7.4137   14.7591 H   0  0  0  0  0  0  0  0  0  0  0  0
    6.3292   -6.3612   16.3517 H   0  0  0  0  0  0  0  0  0  0  0  0
    6.6265  -18.0493    9.8296 H   0  0  0  0  0  0  0  0  0  0  0  0
    6.2520  -20.1199   10.6900 H   0  0  0  0  0  0  0  0  0  0  0  0
    5.1243  -20.0046    9.3510 H   0  0  0  0  0  0  0  0  0  0  0  0
    4.5883  -19.7824   12.2238 H   0  0  0  0  0  0  0  0  0  0  0  0
    2.7878  -19.2039    9.9698 H   0  0  0  0  0  0  0  0  0  0  0  0
    2.3161  -19.3289   11.6570 H   0  0  0  0  0  0  0  0  0  0  0  0
    3.6251  -17.4535   12.3199 H   0  0  0  0  0  0  0  0  0  0  0  0
    2.6405  -17.0728   10.8654 H   0  0  0  0  0  0  0  0  0  0  0  0
    3.8164  -14.4352    9.0675 H   0  0  0  0  0  0  0  0  0  0  0  0
    3.0694  -15.6940    9.6984 H   0  0  0  0  0  0  0  0  0  0  0  0
    3.6648  -16.3027    7.3186 H   0  0  0  0  0  0  0  0  0  0  0  0
    3.9647  -17.5434    8.4355 H   0  0  0  0  0  0  0  0  0  0  0  0
    7.4693  -16.9916    8.6200 H   0  0  0  0  0  0  0  0  0  0  0  0
    7.4532  -15.6455    7.6301 H   0  0  0  0  0  0  0  0  0  0  0  0
    6.9176  -14.1466    9.1868 H   0  0  0  0  0  0  0  0  0  0  0  0
    7.6235  -15.2108   10.1089 H   0  0  0  0  0  0  0  0  0  0  0  0
  1  2  2  0
  2  3  1  0
  3  4  1  0
  4  5  1  0
  5  6  2  0
  6  7  1  0
  7  8  1  0
  8  9  2  0
  2 10  1  0
 10 11  1  0
 11 12  2  0
 12 13  1  0
 13 14  1  0
 14 15  1  0
 15 16  1  0
 10 17  1  0
 17 18  1  0
 18 19  1  0
 19 20  1  0
 20 21  1  0
  9  5  1  0
 21 10  1  0
 16 11  1  0
  3 22  1  0
  4 23  1  0
  4 24  1  0
  6 25  1  0
  7 26  1  0
  8 27  1  0
 12 28  1  0
 13 29  1  0
 13 30  1  0
 14 31  1  0
 15 32  1  0
 15 33  1  0
 16 34  1  0
 16 35  1  0
 17 36  1  0
 17 37  1  0
 18 38  1  0
 18 39  1  0
 20 40  1  0
 20 41  1  0
 21 42  1  0
 21 43  1  0
M  END
>  <Energy>  (396) 
938.32810337941771

>  <compound_id>  (396) 
54444

>  <target_id>  (396) 
1

>  <reference_id>  (396) 
80

>  <inspiration_ids>  (396) 
[85, 80]

>  <energy_score>  (396) 
856.6918675464005

>  <distance_score>  (396) 
5.81050137419879

>  <path>  (396) 
/opt/xchem-fragalysis-2/maxwin/BulkDock/SCRATCH/511024/C54444-P80/C54444-P80.minimised.mol

>  <scratch_subdir>  (396) 
/opt/xchem-fragalysis-2/maxwin/BulkDock/SCRATCH/511024/C54444-P80

>  <fragmenstein_runtime>  (396) 
16.30757975578308

>  <fragmenstein_outcome>  (396) 
too moved

>  <fragmenstein_mode>  (396) 
expansion

>  <fragmenstein_error>  (396) 


$$$$
C58919-P85
     RDKit          3D

 43 45  0  0  0  0  0  0  0  0999 V2000
    6.7524   -9.2899    8.4008 O   0  0  0  0  0  0  0  0  0  0  0  0
    7.3846  -10.2407    8.7496 C   0  0  0  0  0  0  0  0  0  0  0  0
    9.0783   -9.8442    9.7358 N   0  0  0  0  0  0  0  0  0  0  0  0
    9.8592   -8.0919   10.4033 C   0  0  0  0  0  0  0  0  0  0  0  0
   11.4050   -7.0119   10.6955 C   0  0  0  0  0  0  0  0  0  0  0  0
   11.8062   -6.3953   11.7505 N   0  0  0  0  0  0  0  0  0  0  0  0
   12.1139   -4.9711   11.6009 C   0  0  0  0  0  0  0  0  0  0  0  0
   13.2211   -4.8703   10.8447 C   0  0  0  0  0  0  0  0  0  0  0  0
   12.2067   -5.4112   10.1196 N   0  0  0  0  0  0  0  0  0  0  0  0
    6.2691  -11.9951    8.3275 C   0  0  0  0  0  0  0  0  0  0  0  0
    6.0660  -13.7887    8.9404 C   0  0  0  0  0  0  0  0  0  0  0  0
    7.0764  -14.6297    9.3009 C   0  0  0  0  0  0  0  0  0  0  0  0
    7.1155  -16.0565    8.7537 C   0  0  0  0  0  0  0  0  0  0  0  0
    6.0866  -16.8766    9.3277 N   0  0  0  0  0  0  0  0  0  0  0  0
    4.7870  -16.2795    9.0474 C   0  0  0  0  0  0  0  0  0  0  0  0
    4.7851  -14.7530    8.6765 C   0  0  0  0  0  0  0  0  0  0  0  0
    4.7836  -11.2314    8.4344 C   0  0  0  0  0  0  0  0  0  0  0  0
    3.4864  -11.9735    8.5815 C   0  0  0  0  0  0  0  0  0  0  0  0
    3.2554  -12.9724    7.6213 O   0  0  0  0  0  0  0  0  0  0  0  0
    4.0970  -12.8275    6.5095 C   0  0  0  0  0  0  0  0  0  0  0  0
    5.6278  -12.8802    6.8571 C   0  0  0  0  0  0  0  0  0  0  0  0
    9.5791  -10.7364    9.9057 H   0  0  0  0  0  0  0  0  0  0  0  0
    9.6388   -8.2643   11.3856 H   0  0  0  0  0  0  0  0  0  0  0  0
    8.9630   -7.5201   10.5748 H   0  0  0  0  0  0  0  0  0  0  0  0
   11.7654   -4.2991   12.3964 H   0  0  0  0  0  0  0  0  0  0  0  0
   14.0815   -4.9653   10.2033 H   0  0  0  0  0  0  0  0  0  0  0  0
   12.2515   -5.2502    9.1109 H   0  0  0  0  0  0  0  0  0  0  0  0
    8.0326  -14.2987    9.6743 H   0  0  0  0  0  0  0  0  0  0  0  0
    7.0405  -16.0567    7.6590 H   0  0  0  0  0  0  0  0  0  0  0  0
    8.0977  -16.4901    8.9787 H   0  0  0  0  0  0  0  0  0  0  0  0
    6.1033  -17.8221    8.9478 H   0  0  0  0  0  0  0  0  0  0  0  0
    4.3313  -16.8246    8.2085 H   0  0  0  0  0  0  0  0  0  0  0  0
    4.1233  -16.4820    9.8929 H   0  0  0  0  0  0  0  0  0  0  0  0
    4.5636  -14.8421    7.6165 H   0  0  0  0  0  0  0  0  0  0  0  0
    3.9139  -14.3469    9.1697 H   0  0  0  0  0  0  0  0  0  0  0  0
    4.5486  -10.5266    7.6328 H   0  0  0  0  0  0  0  0  0  0  0  0
    4.8817  -10.4636    9.1681 H   0  0  0  0  0  0  0  0  0  0  0  0
    2.6718  -11.2701    8.4321 H   0  0  0  0  0  0  0  0  0  0  0  0
    3.3825  -12.3645    9.5893 H   0  0  0  0  0  0  0  0  0  0  0  0
    3.7852  -11.9203    5.9977 H   0  0  0  0  0  0  0  0  0  0  0  0
    3.8729  -13.6366    5.8158 H   0  0  0  0  0  0  0  0  0  0  0  0
    6.0821  -12.6801    5.9168 H   0  0  0  0  0  0  0  0  0  0  0  0
    5.9736  -13.9206    6.8213 H   0  0  0  0  0  0  0  0  0  0  0  0
  1  2  2  0
  2  3  1  0
  3  4  1  0
  4  5  1  0
  5  6  2  0
  6  7  1  0
  7  8  2  0
  8  9  1  0
  2 10  1  0
 10 11  1  0
 11 12  2  0
 12 13  1  0
 13 14  1  0
 14 15  1  0
 15 16  1  0
 10 17  1  0
 17 18  1  0
 18 19  1  0
 19 20  1  0
 20 21  1  0
  9  5  1  0
 21 10  1  0
 16 11  1  0
  3 22  1  0
  4 23  1  0
  4 24  1  0
  7 25  1  0
  8 26  1  0
  9 27  1  0
 12 28  1  0
 13 29  1  0
 13 30  1  0
 14 31  1  0
 15 32  1  0
 15 33  1  0
 16 34  1  0
 16 35  1  0
 17 36  1  0
 17 37  1  0
 18 38  1  0
 18 39  1  0
 20 40  1  0
 20 41  1  0
 21 42  1  0
 21 43  1  0
M  END
>  <Energy>  (397) 
863.95523342324191

>  <compound_id>  (397) 
58919

>  <target_id>  (397) 
1

>  <reference_id>  (397) 
85

>  <inspiration_ids>  (397) 
[85, 80]

>  <energy_score>  (397) 
798.8576166679455

>  <distance_score>  (397) 
4.812558462221004

>  <path>  (397) 
/opt/xchem-fragalysis-2/maxwin/BulkDock/SCRATCH/511024/C58919-P85/C58919-P85.minimised.mol

>  <scratch_subdir>  (397) 
/opt/xchem-fragalysis-2/maxwin/BulkDock/SCRATCH/511024/C58919-P85

>  <fragmenstein_runtime>  (397) 
14.448735475540161

>  <fragmenstein_outcome>  (397) 
too moved

>  <fragmenstein_mode>  (397) 
expansion

>  <fragmenstein_error>  (397) 


$$$$
C58919-P80
     RDKit          3D

 43 45  0  0  0  0  0  0  0  0999 V2000
    2.8962  -10.7494   12.8549 O   0  0  0  0  0  0  0  0  0  0  0  0
    3.1832  -10.5365   11.7108 C   0  0  0  0  0  0  0  0  0  0  0  0
    3.5258   -8.9170   11.0835 N   0  0  0  0  0  0  0  0  0  0  0  0
    3.6119   -7.2917   11.9105 C   0  0  0  0  0  0  0  0  0  0  0  0
    3.1321   -5.5283   11.9947 C   0  0  0  0  0  0  0  0  0  0  0  0
    3.4556   -4.5506   11.1498 N   0  0  0  0  0  0  0  0  0  0  0  0
    2.9846   -3.3538   11.6338 C   0  0  0  0  0  0  0  0  0  0  0  0
    2.5475   -3.4908   12.9105 C   0  0  0  0  0  0  0  0  0  0  0  0
    2.6610   -4.8283   13.1482 N   0  0  0  0  0  0  0  0  0  0  0  0
    3.0424  -12.2011   10.6595 C   0  0  0  0  0  0  0  0  0  0  0  0
    3.7189  -13.8766    9.9527 C   0  0  0  0  0  0  0  0  0  0  0  0
    4.9646  -14.5215   10.0230 C   0  0  0  0  0  0  0  0  0  0  0  0
    5.2916  -15.9950    9.5855 C   0  0  0  0  0  0  0  0  0  0  0  0
    4.5534  -16.4738    8.4242 N   0  0  0  0  0  0  0  0  0  0  0  0
    3.1741  -16.5468    8.8316 C   0  0  0  0  0  0  0  0  0  0  0  0
    2.6548  -15.1822    9.3297 C   0  0  0  0  0  0  0  0  0  0  0  0
    1.3354  -11.7286   11.1874 C   0  0  0  0  0  0  0  0  0  0  0  0
    1.2429  -10.3182   10.5442 C   0  0  0  0  0  0  0  0  0  0  0  0
    2.4460  -10.3006    9.8035 O   0  0  0  0  0  0  0  0  0  0  0  0
    2.8255  -10.8989    8.6441 C   0  0  0  0  0  0  0  0  0  0  0  0
    3.1620  -12.1153    9.2060 C   0  0  0  0  0  0  0  0  0  0  0  0
    3.8278   -8.9967   10.1427 H   0  0  0  0  0  0  0  0  0  0  0  0
    4.1260   -7.5593   12.8642 H   0  0  0  0  0  0  0  0  0  0  0  0
    4.4038   -6.8770   11.2701 H   0  0  0  0  0  0  0  0  0  0  0  0
    2.9977   -2.4499   11.0460 H   0  0  0  0  0  0  0  0  0  0  0  0
    2.1613   -2.7946   13.6398 H   0  0  0  0  0  0  0  0  0  0  0  0
    2.4980   -5.2051   14.0670 H   0  0  0  0  0  0  0  0  0  0  0  0
    5.7021  -14.2310   10.7491 H   0  0  0  0  0  0  0  0  0  0  0  0
    6.3544  -16.0374    9.3192 H   0  0  0  0  0  0  0  0  0  0  0  0
    5.0824  -16.7199   10.3664 H   0  0  0  0  0  0  0  0  0  0  0  0
    4.8758  -17.4112    8.1850 H   0  0  0  0  0  0  0  0  0  0  0  0
    2.5625  -16.8816    7.9850 H   0  0  0  0  0  0  0  0  0  0  0  0
    3.0403  -17.3077    9.6127 H   0  0  0  0  0  0  0  0  0  0  0  0
    2.0233  -14.8485    8.5189 H   0  0  0  0  0  0  0  0  0  0  0  0
    1.9366  -15.5237   10.0861 H   0  0  0  0  0  0  0  0  0  0  0  0
    0.6070  -12.5353   11.1214 H   0  0  0  0  0  0  0  0  0  0  0  0
    1.0134  -11.4551   12.1968 H   0  0  0  0  0  0  0  0  0  0  0  0
    1.3091   -9.4592   11.1515 H   0  0  0  0  0  0  0  0  0  0  0  0
    0.4952  -10.0774    9.7987 H   0  0  0  0  0  0  0  0  0  0  0  0
    2.0867  -10.8208    7.8435 H   0  0  0  0  0  0  0  0  0  0  0  0
    3.8147  -10.5619    8.3895 H   0  0  0  0  0  0  0  0  0  0  0  0
    2.4914  -12.7909    8.7243 H   0  0  0  0  0  0  0  0  0  0  0  0
    4.1865  -12.2112    8.9212 H   0  0  0  0  0  0  0  0  0  0  0  0
  1  2  2  0
  2  3  1  0
  3  4  1  0
  4  5  1  0
  5  6  2  0
  6  7  1  0
  7  8  2  0
  8  9  1  0
  2 10  1  0
 10 11  1  0
 11 12  2  0
 12 13  1  0
 13 14  1  0
 14 15  1  0
 15 16  1  0
 10 17  1  0
 17 18  1  0
 18 19  1  0
 19 20  1  0
 20 21  1  0
  9  5  1  0
 21 10  1  0
 16 11  1  0
  3 22  1  0
  4 23  1  0
  4 24  1  0
  7 25  1  0
  8 26  1  0
  9 27  1  0
 12 28  1  0
 13 29  1  0
 13 30  1  0
 14 31  1  0
 15 32  1  0
 15 33  1  0
 16 34  1  0
 16 35  1  0
 17 36  1  0
 17 37  1  0
 18 38  1  0
 18 39  1  0
 20 40  1  0
 20 41  1  0
 21 42  1  0
 21 43  1  0
M  END
>  <Energy>  (398) 
578.90077495194373

>  <compound_id>  (398) 
58919

>  <target_id>  (398) 
1

>  <reference_id>  (398) 
80

>  <inspiration_ids>  (398) 
[85, 80]

>  <energy_score>  (398) 
513.8031581966331

>  <distance_score>  (398) 
6.821145095516679

>  <path>  (398) 
/opt/xchem-fragalysis-2/maxwin/BulkDock/SCRATCH/511024/C58919-P80/C58919-P80.minimised.mol

>  <scratch_subdir>  (398) 
/opt/xchem-fragalysis-2/maxwin/BulkDock/SCRATCH/511024/C58919-P80

>  <fragmenstein_runtime>  (398) 
14.447749376296997

>  <fragmenstein_outcome>  (398) 
too moved

>  <fragmenstein_mode>  (398) 
expansion

>  <fragmenstein_error>  (398) 


$$$$
C58922-P85
     RDKit          3D

 39 41  0  0  0  0  0  0  0  0999 V2000
    6.2852   -7.5454    9.7706 C   0  0  0  0  0  0  0  0  0  0  0  0
    5.3716   -8.1711    8.4981 C   0  0  0  0  0  0  0  0  0  0  0  0
    5.0896   -9.9095    8.1588 N   0  0  0  0  0  0  0  0  0  0  0  0
    3.8139  -10.6764    7.4346 C   0  0  0  0  0  0  0  0  0  0  0  0
    2.8546  -10.1750    6.9192 O   0  0  0  0  0  0  0  0  0  0  0  0
    3.7140  -12.3365    7.3014 C   0  0  0  0  0  0  0  0  0  0  0  0
    4.2262  -13.4938    8.1563 C   0  0  0  0  0  0  0  0  0  0  0  0
    5.5275  -13.7102    8.3554 C   0  0  0  0  0  0  0  0  0  0  0  0
    6.1856  -14.9981    8.7446 C   0  0  0  0  0  0  0  0  0  0  0  0
    5.3141  -16.0502    9.2412 N   0  0  0  0  0  0  0  0  0  0  0  0
    4.1133  -16.1217    8.4216 C   0  0  0  0  0  0  0  0  0  0  0  0
    3.3735  -14.7778    8.3226 C   0  0  0  0  0  0  0  0  0  0  0  0
    3.5554  -12.8527    5.8565 C   0  0  0  0  0  0  0  0  0  0  0  0
    2.3130  -12.6867    6.6357 C   0  0  0  0  0  0  0  0  0  0  0  0
    5.4371   -6.2799    7.6674 C   0  0  0  0  0  0  0  0  0  0  0  0
    6.5752   -5.4469    7.9020 N   0  0  0  0  0  0  0  0  0  0  0  0
    6.4767   -4.5223    8.8023 C   0  0  0  0  0  0  0  0  0  0  0  0
    5.1912   -4.6855    9.0339 C   0  0  0  0  0  0  0  0  0  0  0  0
    4.7724   -5.0709    7.8188 N   0  0  0  0  0  0  0  0  0  0  0  0
    7.2125   -8.0586    9.5950 H   0  0  0  0  0  0  0  0  0  0  0  0
    6.6085   -6.5375    9.7373 H   0  0  0  0  0  0  0  0  0  0  0  0
    5.6490   -7.4453   10.5984 H   0  0  0  0  0  0  0  0  0  0  0  0
    5.9573   -8.5350    7.6562 H   0  0  0  0  0  0  0  0  0  0  0  0
    5.7871  -10.5987    8.4284 H   0  0  0  0  0  0  0  0  0  0  0  0
    6.1575  -12.8872    8.0846 H   0  0  0  0  0  0  0  0  0  0  0  0
    6.6977  -15.3949    7.8628 H   0  0  0  0  0  0  0  0  0  0  0  0
    6.9515  -14.7869    9.4952 H   0  0  0  0  0  0  0  0  0  0  0  0
    5.7818  -16.9522    9.1911 H   0  0  0  0  0  0  0  0  0  0  0  0
    3.4355  -16.8753    8.8385 H   0  0  0  0  0  0  0  0  0  0  0  0
    4.3811  -16.4668    7.4191 H   0  0  0  0  0  0  0  0  0  0  0  0
    2.7704  -14.6596    9.2093 H   0  0  0  0  0  0  0  0  0  0  0  0
    2.6941  -14.9523    7.4920 H   0  0  0  0  0  0  0  0  0  0  0  0
    3.5131  -12.2647    4.9609 H   0  0  0  0  0  0  0  0  0  0  0  0
    3.9900  -13.8204    5.6920 H   0  0  0  0  0  0  0  0  0  0  0  0
    1.6416  -11.8965    6.3026 H   0  0  0  0  0  0  0  0  0  0  0  0
    1.7055  -13.5536    6.8308 H   0  0  0  0  0  0  0  0  0  0  0  0
    7.2886   -4.0402    9.2985 H   0  0  0  0  0  0  0  0  0  0  0  0
    4.6140   -4.6214    9.9578 H   0  0  0  0  0  0  0  0  0  0  0  0
    5.0039   -4.5166    7.0110 H   0  0  0  0  0  0  0  0  0  0  0  0
  1  2  1  0
  2  3  1  0
  3  4  1  0
  4  5  2  0
  4  6  1  0
  6  7  1  0
  7  8  2  0
  8  9  1  0
  9 10  1  0
 10 11  1  0
 11 12  1  0
  6 13  1  0
 13 14  1  0
  2 15  1  0
 15 16  2  0
 16 17  1  0
 17 18  2  0
 18 19  1  0
 14  6  1  0
 19 15  1  0
 12  7  1  0
  1 20  1  0
  1 21  1  0
  1 22  1  0
  2 23  1  0
  3 24  1  0
  8 25  1  0
  9 26  1  0
  9 27  1  0
 10 28  1  0
 11 29  1  0
 11 30  1  0
 12 31  1  0
 12 32  1  0
 13 33  1  0
 13 34  1  0
 14 35  1  0
 14 36  1  0
 17 37  1  0
 18 38  1  0
 19 39  1  0
M  END
>  <Energy>  (399) 
400.45294755121552

>  <compound_id>  (399) 
58922

>  <target_id>  (399) 
1

>  <reference_id>  (399) 
85

>  <inspiration_ids>  (399) 
[85, 80]

>  <energy_score>  (399) 
340.74742071135074

>  <distance_score>  (399) 
6.751028492435909

>  <path>  (399) 
/opt/xchem-fragalysis-2/maxwin/BulkDock/SCRATCH/511024/C58922-P85/C58922-P85.minimised.mol

>  <scratch_subdir>  (399) 
/opt/xchem-fragalysis-2/maxwin/BulkDock/SCRATCH/511024/C58922-P85

>  <fragmenstein_runtime>  (399) 
9.493244886398315

>  <fragmenstein_outcome>  (399) 
too moved

>  <fragmenstein_mode>  (399) 
expansion

>  <fragmenstein_error>  (399) 


$$$$
C58922-P80
     RDKit          3D

 39 41  0  0  0  0  0  0  0  0999 V2000
    6.4592   -7.8204   12.9786 C   0  0  0  0  0  0  0  0  0  0  0  0
    5.0300   -8.6384   13.8926 C   0  0  0  0  0  0  0  0  0  0  0  0
    4.5183  -10.4109   13.0815 N   0  0  0  0  0  0  0  0  0  0  0  0
    3.4457  -10.8337   11.4792 C   0  0  0  0  0  0  0  0  0  0  0  0
    2.9042   -9.9357   10.9350 O   0  0  0  0  0  0  0  0  0  0  0  0
    3.2326  -12.3934   10.4322 C   0  0  0  0  0  0  0  0  0  0  0  0
    3.9209  -14.0055    9.8632 C   0  0  0  0  0  0  0  0  0  0  0  0
    5.1246  -14.6926   10.0049 C   0  0  0  0  0  0  0  0  0  0  0  0
    5.3878  -16.1566    9.5219 C   0  0  0  0  0  0  0  0  0  0  0  0
    4.6285  -16.5620    8.3475 N   0  0  0  0  0  0  0  0  0  0  0  0
    3.2408  -16.5897    8.7310 C   0  0  0  0  0  0  0  0  0  0  0  0
    2.7790  -15.2322    9.2933 C   0  0  0  0  0  0  0  0  0  0  0  0
    2.7589  -11.9468    8.9562 C   0  0  0  0  0  0  0  0  0  0  0  0
    4.0022  -11.4600    9.0179 C   0  0  0  0  0  0  0  0  0  0  0  0
    6.3813   -7.4934   14.9483 C   0  0  0  0  0  0  0  0  0  0  0  0
    7.5407   -6.9835   15.2118 N   0  0  0  0  0  0  0  0  0  0  0  0
    7.1470   -5.9942   16.1144 C   0  0  0  0  0  0  0  0  0  0  0  0
    6.3889   -6.3121   17.2122 C   0  0  0  0  0  0  0  0  0  0  0  0
    5.6153   -6.5256   16.1975 N   0  0  0  0  0  0  0  0  0  0  0  0
    6.8081   -7.8476   11.9708 H   0  0  0  0  0  0  0  0  0  0  0  0
    7.4615   -7.7187   13.2450 H   0  0  0  0  0  0  0  0  0  0  0  0
    5.8326   -7.0211   12.9167 H   0  0  0  0  0  0  0  0  0  0  0  0
    5.4731   -9.5327   14.2656 H   0  0  0  0  0  0  0  0  0  0  0  0
    4.9937  -11.2587   13.3946 H   0  0  0  0  0  0  0  0  0  0  0  0
    5.9181  -14.3732   10.6529 H   0  0  0  0  0  0  0  0  0  0  0  0
    6.4434  -16.2291    9.2346 H   0  0  0  0  0  0  0  0  0  0  0  0
    5.1630  -16.8954   10.2894 H   0  0  0  0  0  0  0  0  0  0  0  0
    4.9153  -17.4995    8.0671 H   0  0  0  0  0  0  0  0  0  0  0  0
    3.0620  -17.3824    9.4702 H   0  0  0  0  0  0  0  0  0  0  0  0
    2.6292  -16.8505    7.8590 H   0  0  0  0  0  0  0  0  0  0  0  0
    2.0893  -15.5641   10.0737 H   0  0  0  0  0  0  0  0  0  0  0  0
    2.0873  -14.8571    8.5573 H   0  0  0  0  0  0  0  0  0  0  0  0
    2.3508  -11.0411    8.4847 H   0  0  0  0  0  0  0  0  0  0  0  0
    2.3560  -12.7803    8.4729 H   0  0  0  0  0  0  0  0  0  0  0  0
    4.2112  -10.4297    9.1692 H   0  0  0  0  0  0  0  0  0  0  0  0
    4.9129  -11.9125    8.7191 H   0  0  0  0  0  0  0  0  0  0  0  0
    7.6926   -5.0798   15.9946 H   0  0  0  0  0  0  0  0  0  0  0  0
    6.1011   -5.9182   18.1732 H   0  0  0  0  0  0  0  0  0  0  0  0
    4.6208   -6.4336   16.1313 H   0  0  0  0  0  0  0  0  0  0  0  0
  1  2  1  0
  2  3  1  0
  3  4  1  0
  4  5  2  0
  4  6  1  0
  6  7  1  0
  7  8  2  0
  8  9  1  0
  9 10  1  0
 10 11  1  0
 11 12  1  0
  6 13  1  0
 13 14  1  0
  2 15  1  0
 15 16  2  0
 16 17  1  0
 17 18  2  0
 18 19  1  0
 14  6  1  0
 19 15  1  0
 12  7  1  0
  1 20  1  0
  1 21  1  0
  1 22  1  0
  2 23  1  0
  3 24  1  0
  8 25  1  0
  9 26  1  0
  9 27  1  0
 10 28  1  0
 11 29  1  0
 11 30  1  0
 12 31  1  0
 12 32  1  0
 13 33  1  0
 13 34  1  0
 14 35  1  0
 14 36  1  0
 17 37  1  0
 18 38  1  0
 19 39  1  0
M  END
>  <Energy>  (400) 
824.43279094177774

>  <compound_id>  (400) 
58922

>  <target_id>  (400) 
1

>  <reference_id>  (400) 
80

>  <inspiration_ids>  (400) 
[85, 80]

>  <energy_score>  (400) 
764.7272641019024

>  <distance_score>  (400) 
5.1509965311512245

>  <path>  (400) 
/opt/xchem-fragalysis-2/maxwin/BulkDock/SCRATCH/511024/C58922-P80/C58922-P80.minimised.mol

>  <scratch_subdir>  (400) 
/opt/xchem-fragalysis-2/maxwin/BulkDock/SCRATCH/511024/C58922-P80

>  <fragmenstein_runtime>  (400) 
13.557007074356079

>  <fragmenstein_outcome>  (400) 
too moved

>  <fragmenstein_mode>  (400) 
expansion

>  <fragmenstein_error>  (400) 


$$$$
C58923-P85
     RDKit          3D

 37 38  0  0  0  0  0  0  0  0999 V2000
    2.3555  -17.8482    7.7871 C   0  0  0  0  0  0  0  0  0  0  0  0
    3.6045  -17.1959    8.0453 O   0  0  0  0  0  0  0  0  0  0  0  0
    3.6002  -15.8666    7.7922 C   0  0  0  0  0  0  0  0  0  0  0  0
    2.6821  -15.1998    7.3471 O   0  0  0  0  0  0  0  0  0  0  0  0
    4.8719  -15.2709    8.2373 C   0  0  0  0  0  0  0  0  0  0  0  0
    6.0877  -15.8387    8.2025 C   0  0  0  0  0  0  0  0  0  0  0  0
    7.0932  -15.1918    9.0983 C   0  0  0  0  0  0  0  0  0  0  0  0
    7.8327  -13.9018    9.1611 N   0  0  0  0  0  0  0  0  0  0  0  0
    8.2821  -12.8280   10.4949 C   0  0  0  0  0  0  0  0  0  0  0  0
    7.7831  -13.2381   11.5027 O   0  0  0  0  0  0  0  0  0  0  0  0
    9.7337  -11.0343   10.4426 C   0  0  0  0  0  0  0  0  0  0  0  0
   11.3586   -9.7196   12.0926 S   0  0  0  0  0  0  0  0  0  0  0  0
   11.8331   -7.0725   12.2615 C   0  0  0  0  0  0  0  0  0  0  0  0
   11.5394   -6.0733   14.2619 C   0  0  0  0  0  0  0  0  0  0  0  0
   12.2775   -6.1006   15.4474 N   0  0  0  0  0  0  0  0  0  0  0  0
   12.2808   -4.9148   16.1378 C   0  0  0  0  0  0  0  0  0  0  0  0
   11.7380   -3.9259   15.3830 C   0  0  0  0  0  0  0  0  0  0  0  0
   11.3745   -4.5237   14.2154 N   0  0  0  0  0  0  0  0  0  0  0  0
    6.2971  -13.3474    8.3565 C   0  0  0  0  0  0  0  0  0  0  0  0
    4.8869  -13.8509    8.6698 C   0  0  0  0  0  0  0  0  0  0  0  0
    1.7125  -17.7501    8.6666 H   0  0  0  0  0  0  0  0  0  0  0  0
    1.8464  -17.4493    6.9046 H   0  0  0  0  0  0  0  0  0  0  0  0
    2.5576  -18.9094    7.6185 H   0  0  0  0  0  0  0  0  0  0  0  0
    6.2336  -16.8574    7.8626 H   0  0  0  0  0  0  0  0  0  0  0  0
    7.8936  -15.9306    9.2287 H   0  0  0  0  0  0  0  0  0  0  0  0
    6.5535  -15.1078   10.0385 H   0  0  0  0  0  0  0  0  0  0  0  0
   10.0726  -10.9672    9.4138 H   0  0  0  0  0  0  0  0  0  0  0  0
    9.3212  -10.0720   10.2593 H   0  0  0  0  0  0  0  0  0  0  0  0
   11.7406   -6.3579   11.4304 H   0  0  0  0  0  0  0  0  0  0  0  0
   12.7527   -7.5779   11.8102 H   0  0  0  0  0  0  0  0  0  0  0  0
   12.7254   -4.8547   17.1229 H   0  0  0  0  0  0  0  0  0  0  0  0
   11.6325   -2.8634   15.5401 H   0  0  0  0  0  0  0  0  0  0  0  0
   11.2404   -4.0327   13.3456 H   0  0  0  0  0  0  0  0  0  0  0  0
    6.3599  -13.5762    7.2819 H   0  0  0  0  0  0  0  0  0  0  0  0
    6.1997  -12.2588    8.4469 H   0  0  0  0  0  0  0  0  0  0  0  0
    4.1777  -13.2674    8.0687 H   0  0  0  0  0  0  0  0  0  0  0  0
    4.6599  -13.6419    9.6972 H   0  0  0  0  0  0  0  0  0  0  0  0
  1  2  1  0
  2  3  1  0
  3  4  2  0
  3  5  1  0
  5  6  2  0
  6  7  1  0
  7  8  1  0
  8  9  1  0
  9 10  2  0
  9 11  1  0
 11 12  1  0
 12 13  1  0
 13 14  1  0
 14 15  2  0
 15 16  1  0
 16 17  2  0
 17 18  1  0
  8 19  1  0
 19 20  1  0
 20  5  1  0
 18 14  1  0
  1 21  1  0
  1 22  1  0
  1 23  1  0
  6 24  1  0
  7 25  1  0
  7 26  1  0
 11 27  1  0
 11 28  1  0
 13 29  1  0
 13 30  1  0
 16 31  1  0
 17 32  1  0
 18 33  1  0
 19 34  1  0
 19 35  1  0
 20 36  1  0
 20 37  1  0
M  END
>  <Energy>  (401) 
1090.3406423698921

>  <compound_id>  (401) 
58923

>  <target_id>  (401) 
1

>  <reference_id>  (401) 
85

>  <inspiration_ids>  (401) 
[85, 80]

>  <energy_score>  (401) 
1043.3939133275767

>  <distance_score>  (401) 
4.289445231603294

>  <path>  (401) 
/opt/xchem-fragalysis-2/maxwin/BulkDock/SCRATCH/511024/C58923-P85/C58923-P85.minimised.mol

>  <scratch_subdir>  (401) 
/opt/xchem-fragalysis-2/maxwin/BulkDock/SCRATCH/511024/C58923-P85

>  <fragmenstein_runtime>  (401) 
11.213251113891602

>  <fragmenstein_outcome>  (401) 
too moved

>  <fragmenstein_mode>  (401) 
expansion

>  <fragmenstein_error>  (401) 


$$$$
C58923-P80
     RDKit          3D

 37 38  0  0  0  0  0  0  0  0999 V2000
    8.7285  -20.5007   11.9162 C   0  0  0  0  0  0  0  0  0  0  0  0
    9.0104  -19.3892   11.0647 O   0  0  0  0  0  0  0  0  0  0  0  0
    8.0274  -19.1230   10.1723 C   0  0  0  0  0  0  0  0  0  0  0  0
    6.9873  -19.7464   10.0343 O   0  0  0  0  0  0  0  0  0  0  0  0
    8.3829  -17.9328    9.3755 C   0  0  0  0  0  0  0  0  0  0  0  0
    7.5229  -17.3843    8.5194 C   0  0  0  0  0  0  0  0  0  0  0  0
    8.0187  -16.2418    7.6963 C   0  0  0  0  0  0  0  0  0  0  0  0
    8.4856  -15.0339    8.3936 N   0  0  0  0  0  0  0  0  0  0  0  0
    8.9186  -13.6420    7.8235 C   0  0  0  0  0  0  0  0  0  0  0  0
    9.0532  -13.2755    6.6879 O   0  0  0  0  0  0  0  0  0  0  0  0
    9.0296  -12.8298    9.0870 C   0  0  0  0  0  0  0  0  0  0  0  0
    9.6337  -10.7682    9.8880 S   0  0  0  0  0  0  0  0  0  0  0  0
   11.3476   -9.8330   11.5365 C   0  0  0  0  0  0  0  0  0  0  0  0
   12.1204   -7.9338   11.2443 C   0  0  0  0  0  0  0  0  0  0  0  0
   11.4950   -6.7338   11.4566 N   0  0  0  0  0  0  0  0  0  0  0  0
   11.9935   -5.4366   11.4992 C   0  0  0  0  0  0  0  0  0  0  0  0
   13.1867   -5.4307   10.9283 C   0  0  0  0  0  0  0  0  0  0  0  0
   13.4309   -6.7939   11.1658 N   0  0  0  0  0  0  0  0  0  0  0  0
    9.7342  -15.9277    8.6371 C   0  0  0  0  0  0  0  0  0  0  0  0
    9.6781  -17.2367    9.4886 C   0  0  0  0  0  0  0  0  0  0  0  0
    8.6187  -21.4166   11.3273 H   0  0  0  0  0  0  0  0  0  0  0  0
    7.8292  -20.3102   12.5103 H   0  0  0  0  0  0  0  0  0  0  0  0
    9.5735  -20.6269   12.5987 H   0  0  0  0  0  0  0  0  0  0  0  0
    6.5315  -17.7929    8.3463 H   0  0  0  0  0  0  0  0  0  0  0  0
    8.6168  -16.5571    6.8292 H   0  0  0  0  0  0  0  0  0  0  0  0
    7.0857  -15.8635    7.2918 H   0  0  0  0  0  0  0  0  0  0  0  0
    8.0156  -12.9161    9.4448 H   0  0  0  0  0  0  0  0  0  0  0  0
    9.7674  -13.5077    9.5356 H   0  0  0  0  0  0  0  0  0  0  0  0
   11.0087  -10.2831   12.4647 H   0  0  0  0  0  0  0  0  0  0  0  0
   12.3905  -10.0930   11.6243 H   0  0  0  0  0  0  0  0  0  0  0  0
   11.4274   -4.6639   11.9900 H   0  0  0  0  0  0  0  0  0  0  0  0
   13.9657   -4.7234   10.6817 H   0  0  0  0  0  0  0  0  0  0  0  0
   14.1509   -7.3487   10.7501 H   0  0  0  0  0  0  0  0  0  0  0  0
   10.3366  -16.0445    7.7199 H   0  0  0  0  0  0  0  0  0  0  0  0
   10.3624  -15.3324    9.2963 H   0  0  0  0  0  0  0  0  0  0  0  0
   10.4976  -17.8932    9.1715 H   0  0  0  0  0  0  0  0  0  0  0  0
    9.8736  -16.9911   10.5355 H   0  0  0  0  0  0  0  0  0  0  0  0
  1  2  1  0
  2  3  1  0
  3  4  2  0
  3  5  1  0
  5  6  2  0
  6  7  1  0
  7  8  1  0
  8  9  1  0
  9 10  2  0
  9 11  1  0
 11 12  1  0
 12 13  1  0
 13 14  1  0
 14 15  2  0
 15 16  1  0
 16 17  2  0
 17 18  1  0
  8 19  1  0
 19 20  1  0
 20  5  1  0
 18 14  1  0
  1 21  1  0
  1 22  1  0
  1 23  1  0
  6 24  1  0
  7 25  1  0
  7 26  1  0
 11 27  1  0
 11 28  1  0
 13 29  1  0
 13 30  1  0
 16 31  1  0
 17 32  1  0
 18 33  1  0
 19 34  1  0
 19 35  1  0
 20 36  1  0
 20 37  1  0
M  END
>  <Energy>  (402) 
565.92090373119288

>  <compound_id>  (402) 
58923

>  <target_id>  (402) 
1

>  <reference_id>  (402) 
80

>  <inspiration_ids>  (402) 
[85, 80]

>  <energy_score>  (402) 
518.9741746888831

>  <distance_score>  (402) 
7.644486592002312

>  <path>  (402) 
/opt/xchem-fragalysis-2/maxwin/BulkDock/SCRATCH/511024/C58923-P80/C58923-P80.minimised.mol

>  <scratch_subdir>  (402) 
/opt/xchem-fragalysis-2/maxwin/BulkDock/SCRATCH/511024/C58923-P80

>  <fragmenstein_runtime>  (402) 
14.368133783340454

>  <fragmenstein_outcome>  (402) 
too moved

>  <fragmenstein_mode>  (402) 
expansion

>  <fragmenstein_error>  (402) 


$$$$
C58924-P85
     RDKit          3D

 37 38  0  0  0  0  0  0  0  0999 V2000
    8.1199  -17.1632    7.0555 C   0  0  0  0  0  0  0  0  0  0  0  0
    7.6396  -17.0755    8.5123 C   0  0  0  0  0  0  0  0  0  0  0  0
    8.2926  -18.2355    9.2820 C   0  0  0  0  0  0  0  0  0  0  0  0
    6.1165  -17.3291    8.5065 C   0  0  0  0  0  0  0  0  0  0  0  0
    8.0648  -15.7037    9.0901 C   0  0  0  0  0  0  0  0  0  0  0  0
    9.3750  -15.3055    9.3575 C   0  0  0  0  0  0  0  0  0  0  0  0
    9.9356  -13.7306    9.6000 C   0  0  0  0  0  0  0  0  0  0  0  0
    8.5542  -12.4831   10.0965 N   0  0  0  0  0  0  0  0  0  0  0  0
    9.7304  -10.4275   10.2488 S   0  0  0  0  0  0  0  0  0  0  0  0
   10.1795  -10.4596    8.8418 O   0  0  0  0  0  0  0  0  0  0  0  0
   10.8322  -10.9260   11.2666 O   0  0  0  0  0  0  0  0  0  0  0  0
    9.8261   -8.0401   11.3543 C   0  0  0  0  0  0  0  0  0  0  0  0
    8.7446   -7.5182   12.7754 N   0  0  0  0  0  0  0  0  0  0  0  0
    9.6279   -7.4676   14.7410 C   0  0  0  0  0  0  0  0  0  0  0  0
   11.2967   -6.3859   14.2341 C   0  0  0  0  0  0  0  0  0  0  0  0
   11.3080   -6.7525   12.1709 N   0  0  0  0  0  0  0  0  0  0  0  0
    7.4975  -13.8687   10.6165 C   0  0  0  0  0  0  0  0  0  0  0  0
    6.9358  -14.6218    9.3636 C   0  0  0  0  0  0  0  0  0  0  0  0
    7.6668  -16.3843    6.4423 H   0  0  0  0  0  0  0  0  0  0  0  0
    9.2081  -17.0505    6.9797 H   0  0  0  0  0  0  0  0  0  0  0  0
    7.8724  -18.1332    6.6094 H   0  0  0  0  0  0  0  0  0  0  0  0
    9.3865  -18.1766    9.2670 H   0  0  0  0  0  0  0  0  0  0  0  0
    7.9794  -18.2732   10.3290 H   0  0  0  0  0  0  0  0  0  0  0  0
    8.0245  -19.2020    8.8374 H   0  0  0  0  0  0  0  0  0  0  0  0
    5.5802  -16.5624    7.9364 H   0  0  0  0  0  0  0  0  0  0  0  0
    5.8800  -18.2950    8.0437 H   0  0  0  0  0  0  0  0  0  0  0  0
    5.7013  -17.3563    9.5189 H   0  0  0  0  0  0  0  0  0  0  0  0
   10.2045  -15.9939    9.1984 H   0  0  0  0  0  0  0  0  0  0  0  0
   10.4075  -13.3211    8.7006 H   0  0  0  0  0  0  0  0  0  0  0  0
   10.7075  -13.8303   10.3761 H   0  0  0  0  0  0  0  0  0  0  0  0
    8.7578   -6.9434   15.2120 H   0  0  0  0  0  0  0  0  0  0  0  0
   11.3184   -5.2634   14.3905 H   0  0  0  0  0  0  0  0  0  0  0  0
   11.4801   -5.9759   11.5386 H   0  0  0  0  0  0  0  0  0  0  0  0
    6.8529  -13.6930   11.4889 H   0  0  0  0  0  0  0  0  0  0  0  0
    7.7524  -14.7842   10.8728 H   0  0  0  0  0  0  0  0  0  0  0  0
    6.0093  -15.1123    9.6742 H   0  0  0  0  0  0  0  0  0  0  0  0
    6.6477  -14.0144    8.5114 H   0  0  0  0  0  0  0  0  0  0  0  0
  1  2  1  0
  2  3  1  0
  2  4  1  0
  2  5  1  0
  5  6  2  0
  6  7  1  0
  7  8  1  0
  8  9  1  0
  9 10  2  0
  9 11  2  0
  9 12  1  0
 12 13  2  0
 13 14  1  0
 14 15  2  0
 15 16  1  0
  8 17  1  0
 17 18  1  0
 18  5  1  0
 16 12  1  0
  1 19  1  0
  1 20  1  0
  1 21  1  0
  3 22  1  0
  3 23  1  0
  3 24  1  0
  4 25  1  0
  4 26  1  0
  4 27  1  0
  6 28  1  0
  7 29  1  0
  7 30  1  0
 14 31  1  0
 15 32  1  0
 16 33  1  0
 17 34  1  0
 17 35  1  0
 18 36  1  0
 18 37  1  0
M  END
>  <Energy>  (403) 
1468.5423591383485

>  <compound_id>  (403) 
58924

>  <target_id>  (403) 
1

>  <reference_id>  (403) 
85

>  <inspiration_ids>  (403) 
[85, 80]

>  <energy_score>  (403) 
1413.3616813095434

>  <distance_score>  (403) 
6.817603207247783

>  <path>  (403) 
/opt/xchem-fragalysis-2/maxwin/BulkDock/SCRATCH/511024/C58924-P85/C58924-P85.minimised.mol

>  <scratch_subdir>  (403) 
/opt/xchem-fragalysis-2/maxwin/BulkDock/SCRATCH/511024/C58924-P85

>  <fragmenstein_runtime>  (403) 
8.264009237289429

>  <fragmenstein_outcome>  (403) 
too moved

>  <fragmenstein_mode>  (403) 
expansion

>  <fragmenstein_error>  (403) 


$$$$
C58924-P80
     RDKit          3D

 37 38  0  0  0  0  0  0  0  0999 V2000
    5.1715  -17.5283    7.4977 C   0  0  0  0  0  0  0  0  0  0  0  0
    6.3958  -17.5231    8.4397 C   0  0  0  0  0  0  0  0  0  0  0  0
    7.6696  -17.9147    7.6704 C   0  0  0  0  0  0  0  0  0  0  0  0
    6.1806  -18.6689    9.4645 C   0  0  0  0  0  0  0  0  0  0  0  0
    6.5471  -16.1545    9.1377 C   0  0  0  0  0  0  0  0  0  0  0  0
    7.6226  -15.3476    9.1764 C   0  0  0  0  0  0  0  0  0  0  0  0
    7.8378  -14.0210    9.9638 C   0  0  0  0  0  0  0  0  0  0  0  0
    6.8712  -13.8860   11.5303 N   0  0  0  0  0  0  0  0  0  0  0  0
    6.5058  -12.4995   13.3212 S   0  0  0  0  0  0  0  0  0  0  0  0
    5.4687  -11.4885   13.4152 O   0  0  0  0  0  0  0  0  0  0  0  0
    6.4820  -13.6400   14.1617 O   0  0  0  0  0  0  0  0  0  0  0  0
    8.5501  -11.4291   14.2807 C   0  0  0  0  0  0  0  0  0  0  0  0
    9.2554  -12.4250   15.0687 N   0  0  0  0  0  0  0  0  0  0  0  0
   10.1751  -11.9077   15.9207 C   0  0  0  0  0  0  0  0  0  0  0  0
   10.1136  -10.5866   15.7233 C   0  0  0  0  0  0  0  0  0  0  0  0
    8.7908  -10.4821   15.3470 N   0  0  0  0  0  0  0  0  0  0  0  0
    5.5841  -14.4589   10.9629 C   0  0  0  0  0  0  0  0  0  0  0  0
    5.3845  -15.6690    9.9396 C   0  0  0  0  0  0  0  0  0  0  0  0
    4.2310  -17.4562    8.0561 H   0  0  0  0  0  0  0  0  0  0  0  0
    5.1921  -16.6962    6.7954 H   0  0  0  0  0  0  0  0  0  0  0  0
    5.1261  -18.4550    6.9142 H   0  0  0  0  0  0  0  0  0  0  0  0
    7.4973  -18.7844    7.0257 H   0  0  0  0  0  0  0  0  0  0  0  0
    8.0625  -17.1124    7.0476 H   0  0  0  0  0  0  0  0  0  0  0  0
    8.4793  -18.1838    8.3611 H   0  0  0  0  0  0  0  0  0  0  0  0
    6.9855  -18.7008   10.2073 H   0  0  0  0  0  0  0  0  0  0  0  0
    5.2298  -18.5841    9.9998 H   0  0  0  0  0  0  0  0  0  0  0  0
    6.1659  -19.6435    8.9606 H   0  0  0  0  0  0  0  0  0  0  0  0
    8.5069  -15.6140    8.6010 H   0  0  0  0  0  0  0  0  0  0  0  0
    8.9061  -14.1661   10.0831 H   0  0  0  0  0  0  0  0  0  0  0  0
    7.7335  -13.1873    9.2568 H   0  0  0  0  0  0  0  0  0  0  0  0
   10.8581  -12.5127   16.4995 H   0  0  0  0  0  0  0  0  0  0  0  0
   10.7368   -9.8145   16.0931 H   0  0  0  0  0  0  0  0  0  0  0  0
    8.1011  -10.5042   16.0579 H   0  0  0  0  0  0  0  0  0  0  0  0
    5.3683  -14.9012   11.9004 H   0  0  0  0  0  0  0  0  0  0  0  0
    4.8244  -13.7247   10.6827 H   0  0  0  0  0  0  0  0  0  0  0  0
    4.4712  -15.4564    9.3689 H   0  0  0  0  0  0  0  0  0  0  0  0
    4.9701  -16.5533   10.4414 H   0  0  0  0  0  0  0  0  0  0  0  0
  1  2  1  0
  2  3  1  0
  2  4  1  0
  2  5  1  0
  5  6  2  0
  6  7  1  0
  7  8  1  0
  8  9  1  0
  9 10  2  0
  9 11  2  0
  9 12  1  0
 12 13  2  0
 13 14  1  0
 14 15  2  0
 15 16  1  0
  8 17  1  0
 17 18  1  0
 18  5  1  0
 16 12  1  0
  1 19  1  0
  1 20  1  0
  1 21  1  0
  3 22  1  0
  3 23  1  0
  3 24  1  0
  4 25  1  0
  4 26  1  0
  4 27  1  0
  6 28  1  0
  7 29  1  0
  7 30  1  0
 14 31  1  0
 15 32  1  0
 16 33  1  0
 17 34  1  0
 17 35  1  0
 18 36  1  0
 18 37  1  0
M  END
>  <Energy>  (404) 
393.26702433843025

>  <compound_id>  (404) 
58924

>  <target_id>  (404) 
1

>  <reference_id>  (404) 
80

>  <inspiration_ids>  (404) 
[85, 80]

>  <energy_score>  (404) 
338.08634650961733

>  <distance_score>  (404) 
7.27205545669682

>  <path>  (404) 
/opt/xchem-fragalysis-2/maxwin/BulkDock/SCRATCH/511024/C58924-P80/C58924-P80.minimised.mol

>  <scratch_subdir>  (404) 
/opt/xchem-fragalysis-2/maxwin/BulkDock/SCRATCH/511024/C58924-P80

>  <fragmenstein_runtime>  (404) 
9.676106452941895

>  <fragmenstein_outcome>  (404) 
too moved

>  <fragmenstein_mode>  (404) 
expansion

>  <fragmenstein_error>  (404) 


$$$$
C54446-P85
     RDKit          3D

 37 38  0  0  0  0  0  0  0  0999 V2000
    5.2500  -14.7623    6.9686 C   0  0  0  0  0  0  0  0  0  0  0  0
    5.6976  -15.5926    8.1834 C   0  0  0  0  0  0  0  0  0  0  0  0
    4.4707  -16.3835    8.7098 C   0  0  0  0  0  0  0  0  0  0  0  0
    6.7659  -16.6573    7.8562 C   0  0  0  0  0  0  0  0  0  0  0  0
    6.1852  -14.6294    9.2386 C   0  0  0  0  0  0  0  0  0  0  0  0
    7.3476  -14.5280    9.9190 C   0  0  0  0  0  0  0  0  0  0  0  0
    7.5280  -13.4694   11.3970 C   0  0  0  0  0  0  0  0  0  0  0  0
    6.5493  -12.7995   12.9734 N   0  0  0  0  0  0  0  0  0  0  0  0
    5.9713  -10.6710   13.9016 S   0  0  0  0  0  0  0  0  0  0  0  0
    7.3500  -10.4543   14.4944 O   0  0  0  0  0  0  0  0  0  0  0  0
    4.7155  -10.8646   14.5689 O   0  0  0  0  0  0  0  0  0  0  0  0
    6.3844   -8.3242   14.3293 C   0  0  0  0  0  0  0  0  0  0  0  0
    6.5384   -7.2491   15.5605 C   0  0  0  0  0  0  0  0  0  0  0  0
    7.5728   -6.4846   15.6681 N   0  0  0  0  0  0  0  0  0  0  0  0
    8.2957   -7.0775   14.7422 C   0  0  0  0  0  0  0  0  0  0  0  0
    7.4001   -7.7776   13.5590 N   0  0  0  0  0  0  0  0  0  0  0  0
    5.6423  -13.7937   11.4975 C   0  0  0  0  0  0  0  0  0  0  0  0
    5.2258  -13.6411    9.8030 C   0  0  0  0  0  0  0  0  0  0  0  0
    6.0362  -14.6819    6.2144 H   0  0  0  0  0  0  0  0  0  0  0  0
    4.9674  -13.7335    7.2155 H   0  0  0  0  0  0  0  0  0  0  0  0
    4.3537  -15.1889    6.5212 H   0  0  0  0  0  0  0  0  0  0  0  0
    3.5855  -15.7548    8.8480 H   0  0  0  0  0  0  0  0  0  0  0  0
    4.1735  -17.1669    8.0018 H   0  0  0  0  0  0  0  0  0  0  0  0
    4.6920  -16.8733    9.6653 H   0  0  0  0  0  0  0  0  0  0  0  0
    7.5165  -16.3003    7.1497 H   0  0  0  0  0  0  0  0  0  0  0  0
    6.3214  -17.5608    7.4341 H   0  0  0  0  0  0  0  0  0  0  0  0
    7.2893  -17.0071    8.7527 H   0  0  0  0  0  0  0  0  0  0  0  0
    8.2296  -15.1099    9.6755 H   0  0  0  0  0  0  0  0  0  0  0  0
    7.7770  -14.0843   12.1101 H   0  0  0  0  0  0  0  0  0  0  0  0
    8.1464  -12.9099   10.7682 H   0  0  0  0  0  0  0  0  0  0  0  0
    6.0399   -6.9803   16.5162 H   0  0  0  0  0  0  0  0  0  0  0  0
    7.7730   -5.7582   16.3243 H   0  0  0  0  0  0  0  0  0  0  0  0
    9.2888   -7.4023   15.0907 H   0  0  0  0  0  0  0  0  0  0  0  0
    6.1843  -14.6600   11.3415 H   0  0  0  0  0  0  0  0  0  0  0  0
    5.4201  -14.7750   12.0688 H   0  0  0  0  0  0  0  0  0  0  0  0
    4.1929  -13.8765    9.5378 H   0  0  0  0  0  0  0  0  0  0  0  0
    5.3274  -12.7369    9.1983 H   0  0  0  0  0  0  0  0  0  0  0  0
  1  2  1  0
  2  3  1  0
  2  4  1  0
  2  5  1  0
  5  6  2  0
  6  7  1  0
  7  8  1  0
  8  9  1  0
  9 10  2  0
  9 11  2  0
  9 12  1  0
 12 13  2  0
 13 14  1  0
 14 15  1  0
 15 16  2  0
  8 17  1  0
 17 18  1  0
 18  5  1  0
 16 12  1  0
  1 19  1  0
  1 20  1  0
  1 21  1  0
  3 22  1  0
  3 23  1  0
  3 24  1  0
  4 25  1  0
  4 26  1  0
  4 27  1  0
  6 28  1  0
  7 29  1  0
  7 30  1  0
 13 31  1  0
 14 32  1  0
 15 33  1  0
 17 34  1  0
 17 35  1  0
 18 36  1  0
 18 37  1  0
M  END
>  <Energy>  (405) 
986.52812750523401

>  <compound_id>  (405) 
54446

>  <target_id>  (405) 
1

>  <reference_id>  (405) 
85

>  <inspiration_ids>  (405) 
[85, 80]

>  <energy_score>  (405) 
895.6648129614421

>  <distance_score>  (405) 
6.052692966216181

>  <path>  (405) 
/opt/xchem-fragalysis-2/maxwin/BulkDock/SCRATCH/511024/C54446-P85/C54446-P85.minimised.mol

>  <scratch_subdir>  (405) 
/opt/xchem-fragalysis-2/maxwin/BulkDock/SCRATCH/511024/C54446-P85

>  <fragmenstein_runtime>  (405) 
8.436111211776733

>  <fragmenstein_outcome>  (405) 
too moved

>  <fragmenstein_mode>  (405) 
expansion

>  <fragmenstein_error>  (405) 


$$$$
C54446-P80
     RDKit          3D

 37 38  0  0  0  0  0  0  0  0999 V2000
    4.6956  -16.5999    9.3948 C   0  0  0  0  0  0  0  0  0  0  0  0
    5.7602  -17.3969    8.6075 C   0  0  0  0  0  0  0  0  0  0  0  0
    5.2025  -17.4899    7.1854 C   0  0  0  0  0  0  0  0  0  0  0  0
    5.7689  -18.8438    9.1661 C   0  0  0  0  0  0  0  0  0  0  0  0
    7.2334  -16.8159    8.6808 C   0  0  0  0  0  0  0  0  0  0  0  0
    8.3267  -17.2503    9.3560 C   0  0  0  0  0  0  0  0  0  0  0  0
    9.7065  -16.4948    9.3296 C   0  0  0  0  0  0  0  0  0  0  0  0
    9.5782  -14.9611    9.3686 N   0  0  0  0  0  0  0  0  0  0  0  0
   11.2354  -14.0113    9.0245 S   0  0  0  0  0  0  0  0  0  0  0  0
   12.2234  -14.8861    9.6529 O   0  0  0  0  0  0  0  0  0  0  0  0
   11.2771  -13.8173    7.5857 O   0  0  0  0  0  0  0  0  0  0  0  0
   11.9195  -12.2225    9.7559 C   0  0  0  0  0  0  0  0  0  0  0  0
   12.7669  -12.1297   10.8687 C   0  0  0  0  0  0  0  0  0  0  0  0
   13.4346  -10.9223   10.8470 N   0  0  0  0  0  0  0  0  0  0  0  0
   13.2452  -10.4092    9.5998 C   0  0  0  0  0  0  0  0  0  0  0  0
   12.3859  -11.1600    8.9103 N   0  0  0  0  0  0  0  0  0  0  0  0
    8.3552  -14.5069    8.6102 C   0  0  0  0  0  0  0  0  0  0  0  0
    7.7012  -15.6701    7.8430 C   0  0  0  0  0  0  0  0  0  0  0  0
    3.8075  -16.3389    8.8085 H   0  0  0  0  0  0  0  0  0  0  0  0
    4.3314  -17.1725   10.2557 H   0  0  0  0  0  0  0  0  0  0  0  0
    5.1403  -15.6828    9.7853 H   0  0  0  0  0  0  0  0  0  0  0  0
    4.2219  -17.9841    7.1741 H   0  0  0  0  0  0  0  0  0  0  0  0
    5.8559  -18.1067    6.5607 H   0  0  0  0  0  0  0  0  0  0  0  0
    5.0559  -16.5189    6.7174 H   0  0  0  0  0  0  0  0  0  0  0  0
    6.4673  -19.4818    8.6115 H   0  0  0  0  0  0  0  0  0  0  0  0
    6.0540  -18.8681   10.2240 H   0  0  0  0  0  0  0  0  0  0  0  0
    4.7768  -19.3058    9.0913 H   0  0  0  0  0  0  0  0  0  0  0  0
    8.3050  -18.1450    9.9716 H   0  0  0  0  0  0  0  0  0  0  0  0
   10.2646  -16.7913   10.2243 H   0  0  0  0  0  0  0  0  0  0  0  0
   10.2766  -16.8042    8.4470 H   0  0  0  0  0  0  0  0  0  0  0  0
   13.1268  -12.9349   11.4832 H   0  0  0  0  0  0  0  0  0  0  0  0
   14.2277  -10.7092   11.4294 H   0  0  0  0  0  0  0  0  0  0  0  0
   13.7602   -9.5372    9.2206 H   0  0  0  0  0  0  0  0  0  0  0  0
    8.6233  -13.7014    7.9206 H   0  0  0  0  0  0  0  0  0  0  0  0
    7.6635  -14.1105    9.3491 H   0  0  0  0  0  0  0  0  0  0  0  0
    6.9459  -15.3392    7.1768 H   0  0  0  0  0  0  0  0  0  0  0  0
    8.4716  -16.0655    7.1623 H   0  0  0  0  0  0  0  0  0  0  0  0
  1  2  1  0
  2  3  1  0
  2  4  1  0
  2  5  1  0
  5  6  2  0
  6  7  1  0
  7  8  1  0
  8  9  1  0
  9 10  2  0
  9 11  2  0
  9 12  1  0
 12 13  2  0
 13 14  1  0
 14 15  1  0
 15 16  2  0
  8 17  1  0
 17 18  1  0
 18  5  1  0
 16 12  1  0
  1 19  1  0
  1 20  1  0
  1 21  1  0
  3 22  1  0
  3 23  1  0
  3 24  1  0
  4 25  1  0
  4 26  1  0
  4 27  1  0
  6 28  1  0
  7 29  1  0
  7 30  1  0
 13 31  1  0
 14 32  1  0
 15 33  1  0
 17 34  1  0
 17 35  1  0
 18 36  1  0
 18 37  1  0
M  END
>  <Energy>  (406) 
133.70394368351029

>  <compound_id>  (406) 
54446

>  <target_id>  (406) 
1

>  <reference_id>  (406) 
80

>  <inspiration_ids>  (406) 
[85, 80]

>  <energy_score>  (406) 
45.75491909770636

>  <distance_score>  (406) 
7.911723948168125

>  <path>  (406) 
/opt/xchem-fragalysis-2/maxwin/BulkDock/SCRATCH/511024/C54446-P80/C54446-P80.minimised.mol

>  <scratch_subdir>  (406) 
/opt/xchem-fragalysis-2/maxwin/BulkDock/SCRATCH/511024/C54446-P80

>  <fragmenstein_runtime>  (406) 
8.797817707061768

>  <fragmenstein_outcome>  (406) 
too moved

>  <fragmenstein_mode>  (406) 
expansion

>  <fragmenstein_error>  (406) 


$$$$
C58925-P85
     RDKit          3D

 44 45  0  0  0  0  0  0  0  0999 V2000
    2.0413  -15.0973    6.1947 C   0  0  0  0  0  0  0  0  0  0  0  0
    2.6881  -13.6951    6.2123 C   0  0  0  0  0  0  0  0  0  0  0  0
    3.6232  -13.1191    5.1842 C   0  0  0  0  0  0  0  0  0  0  0  0
    1.5061  -12.7106    6.1405 C   0  0  0  0  0  0  0  0  0  0  0  0
    3.6108  -13.6123    7.3846 C   0  0  0  0  0  0  0  0  0  0  0  0
    4.8569  -13.1350    7.4702 C   0  0  0  0  0  0  0  0  0  0  0  0
    5.1913  -12.4057    8.7203 C   0  0  0  0  0  0  0  0  0  0  0  0
    4.0721  -11.5629    9.4105 N   0  0  0  0  0  0  0  0  0  0  0  0
    4.1923  -11.0254   11.2037 C   0  0  0  0  0  0  0  0  0  0  0  0
    5.2084  -10.9707   13.1072 C   0  0  0  0  0  0  0  0  0  0  0  0
    6.1952  -10.1156   14.0817 N   0  0  0  0  0  0  0  0  0  0  0  0
    6.3427   -8.2180   14.3973 C   0  0  0  0  0  0  0  0  0  0  0  0
    5.5406   -7.5489   13.8702 O   0  0  0  0  0  0  0  0  0  0  0  0
    7.5202   -7.1333   15.3570 C   0  0  0  0  0  0  0  0  0  0  0  0
    8.6627   -6.5239   14.8925 N   0  0  0  0  0  0  0  0  0  0  0  0
    9.1498   -4.8046   15.0913 C   0  0  0  0  0  0  0  0  0  0  0  0
    8.2798   -4.3995   16.0163 C   0  0  0  0  0  0  0  0  0  0  0  0
    7.2469   -5.8974   16.2464 N   0  0  0  0  0  0  0  0  0  0  0  0
    2.9504  -12.3975    9.2170 C   0  0  0  0  0  0  0  0  0  0  0  0
    3.0847  -13.8287    8.7070 C   0  0  0  0  0  0  0  0  0  0  0  0
    1.5055  -15.3049    5.2645 H   0  0  0  0  0  0  0  0  0  0  0  0
    1.2721  -15.2115    6.9629 H   0  0  0  0  0  0  0  0  0  0  0  0
    2.7629  -15.8871    6.4130 H   0  0  0  0  0  0  0  0  0  0  0  0
    3.3296  -13.1289    4.1749 H   0  0  0  0  0  0  0  0  0  0  0  0
    4.6213  -13.5483    5.1495 H   0  0  0  0  0  0  0  0  0  0  0  0
    3.7052  -12.0696    5.4390 H   0  0  0  0  0  0  0  0  0  0  0  0
    1.1297  -12.5975    5.1210 H   0  0  0  0  0  0  0  0  0  0  0  0
    0.6645  -13.1050    6.6826 H   0  0  0  0  0  0  0  0  0  0  0  0
    1.7476  -11.7056    6.4977 H   0  0  0  0  0  0  0  0  0  0  0  0
    5.5560  -12.9865    6.6675 H   0  0  0  0  0  0  0  0  0  0  0  0
    5.9809  -11.7028    8.4645 H   0  0  0  0  0  0  0  0  0  0  0  0
    5.4921  -13.2446    9.3556 H   0  0  0  0  0  0  0  0  0  0  0  0
    4.1342  -12.1348   11.1804 H   0  0  0  0  0  0  0  0  0  0  0  0
    3.1930  -10.5760   11.3304 H   0  0  0  0  0  0  0  0  0  0  0  0
    5.4737  -11.9682   13.4830 H   0  0  0  0  0  0  0  0  0  0  0  0
    4.3726  -10.5647   13.7317 H   0  0  0  0  0  0  0  0  0  0  0  0
    7.0072  -10.5889   14.5269 H   0  0  0  0  0  0  0  0  0  0  0  0
   10.2090   -4.5119   14.9313 H   0  0  0  0  0  0  0  0  0  0  0  0
    7.8049   -3.4126   15.9330 H   0  0  0  0  0  0  0  0  0  0  0  0
    6.3442   -5.8438   16.6813 H   0  0  0  0  0  0  0  0  0  0  0  0
    2.4298  -11.8004    8.4651 H   0  0  0  0  0  0  0  0  0  0  0  0
    2.5222  -12.3555   10.1917 H   0  0  0  0  0  0  0  0  0  0  0  0
    2.2263  -14.4627    8.6268 H   0  0  0  0  0  0  0  0  0  0  0  0
    3.7871  -14.4631    9.2425 H   0  0  0  0  0  0  0  0  0  0  0  0
  1  2  1  0
  2  3  1  0
  2  4  1  0
  2  5  1  0
  5  6  2  0
  6  7  1  0
  7  8  1  0
  8  9  1  0
  9 10  1  0
 10 11  1  0
 11 12  1  0
 12 13  2  0
 12 14  1  0
 14 15  2  0
 15 16  1  0
 16 17  2  0
 17 18  1  0
  8 19  1  0
 19 20  1  0
 20  5  1  0
 18 14  1  0
  1 21  1  0
  1 22  1  0
  1 23  1  0
  3 24  1  0
  3 25  1  0
  3 26  1  0
  4 27  1  0
  4 28  1  0
  4 29  1  0
  6 30  1  0
  7 31  1  0
  7 32  1  0
  9 33  1  0
  9 34  1  0
 10 35  1  0
 10 36  1  0
 11 37  1  0
 16 38  1  0
 17 39  1  0
 18 40  1  0
 19 41  1  0
 19 42  1  0
 20 43  1  0
 20 44  1  0
M  END
>  <Energy>  (407) 
687.76509718926548

>  <compound_id>  (407) 
58925

>  <target_id>  (407) 
1

>  <reference_id>  (407) 
85

>  <inspiration_ids>  (407) 
[85, 80]

>  <energy_score>  (407) 
607.7902456146271

>  <distance_score>  (407) 
5.128526953922566

>  <path>  (407) 
/opt/xchem-fragalysis-2/maxwin/BulkDock/SCRATCH/511024/C58925-P85/C58925-P85.minimised.mol

>  <scratch_subdir>  (407) 
/opt/xchem-fragalysis-2/maxwin/BulkDock/SCRATCH/511024/C58925-P85

>  <fragmenstein_runtime>  (407) 
12.521954774856567

>  <fragmenstein_outcome>  (407) 
too moved

>  <fragmenstein_mode>  (407) 
expansion

>  <fragmenstein_error>  (407) 


$$$$
C58925-P80
     RDKit          3D

 44 45  0  0  0  0  0  0  0  0999 V2000
    6.0604  -17.1171    8.5291 C   0  0  0  0  0  0  0  0  0  0  0  0
    4.9724  -16.4157    9.4104 C   0  0  0  0  0  0  0  0  0  0  0  0
    3.6650  -16.4551    8.5342 C   0  0  0  0  0  0  0  0  0  0  0  0
    4.6220  -17.5298   10.4658 C   0  0  0  0  0  0  0  0  0  0  0  0
    5.5226  -14.7338    9.7995 C   0  0  0  0  0  0  0  0  0  0  0  0
    6.8400  -14.2924    9.3643 C   0  0  0  0  0  0  0  0  0  0  0  0
    7.1119  -12.6093    8.5170 C   0  0  0  0  0  0  0  0  0  0  0  0
    5.9103  -11.1973    8.5813 N   0  0  0  0  0  0  0  0  0  0  0  0
    6.2552   -9.4962    8.1309 C   0  0  0  0  0  0  0  0  0  0  0  0
    5.8607   -7.7733    9.0660 C   0  0  0  0  0  0  0  0  0  0  0  0
    6.2433   -5.9844    8.6981 N   0  0  0  0  0  0  0  0  0  0  0  0
    5.7308   -5.0796    7.6583 C   0  0  0  0  0  0  0  0  0  0  0  0
    4.9958   -5.2888    6.7321 O   0  0  0  0  0  0  0  0  0  0  0  0
    6.1708   -3.7005    7.9418 C   0  0  0  0  0  0  0  0  0  0  0  0
    6.5844   -3.2798    9.1295 N   0  0  0  0  0  0  0  0  0  0  0  0
    6.7169   -1.9240    9.0400 C   0  0  0  0  0  0  0  0  0  0  0  0
    6.4471   -1.5036    7.7642 C   0  0  0  0  0  0  0  0  0  0  0  0
    6.0712   -2.6326    7.0884 N   0  0  0  0  0  0  0  0  0  0  0  0
    4.2030  -11.7709    8.9111 C   0  0  0  0  0  0  0  0  0  0  0  0
    4.2236  -13.4593    9.7076 C   0  0  0  0  0  0  0  0  0  0  0  0
    6.2959  -16.5732    7.6138 H   0  0  0  0  0  0  0  0  0  0  0  0
    5.7278  -18.1138    8.2111 H   0  0  0  0  0  0  0  0  0  0  0  0
    6.9980  -17.2576    9.0744 H   0  0  0  0  0  0  0  0  0  0  0  0
    2.8496  -15.8904    8.9881 H   0  0  0  0  0  0  0  0  0  0  0  0
    3.2770  -17.4752    8.4113 H   0  0  0  0  0  0  0  0  0  0  0  0
    3.8357  -16.1594    7.4971 H   0  0  0  0  0  0  0  0  0  0  0  0
    4.0461  -18.3505   10.0148 H   0  0  0  0  0  0  0  0  0  0  0  0
    5.5018  -18.0697   10.8284 H   0  0  0  0  0  0  0  0  0  0  0  0
    4.0046  -17.1979   11.2969 H   0  0  0  0  0  0  0  0  0  0  0  0
    7.6594  -14.9597    9.1227 H   0  0  0  0  0  0  0  0  0  0  0  0
    7.3886  -12.8303    7.4723 H   0  0  0  0  0  0  0  0  0  0  0  0
    8.0854  -12.2786    8.8859 H   0  0  0  0  0  0  0  0  0  0  0  0
    7.2972   -9.6413    8.2981 H   0  0  0  0  0  0  0  0  0  0  0  0
    6.1418   -9.4077    7.0703 H   0  0  0  0  0  0  0  0  0  0  0  0
    6.6578   -7.6201    9.7430 H   0  0  0  0  0  0  0  0  0  0  0  0
    4.9439   -7.8603    9.6445 H   0  0  0  0  0  0  0  0  0  0  0  0
    6.9009   -5.4897    9.2645 H   0  0  0  0  0  0  0  0  0  0  0  0
    6.9907   -1.3232    9.8959 H   0  0  0  0  0  0  0  0  0  0  0  0
    6.4397   -0.5244    7.3078 H   0  0  0  0  0  0  0  0  0  0  0  0
    5.7097   -2.6910    6.1461 H   0  0  0  0  0  0  0  0  0  0  0  0
    3.7441  -11.0316    9.6231 H   0  0  0  0  0  0  0  0  0  0  0  0
    3.3666  -11.6303    8.2482 H   0  0  0  0  0  0  0  0  0  0  0  0
    3.3040  -13.9447    9.3951 H   0  0  0  0  0  0  0  0  0  0  0  0
    4.0533  -13.1828   10.7374 H   0  0  0  0  0  0  0  0  0  0  0  0
  1  2  1  0
  2  3  1  0
  2  4  1  0
  2  5  1  0
  5  6  2  0
  6  7  1  0
  7  8  1  0
  8  9  1  0
  9 10  1  0
 10 11  1  0
 11 12  1  0
 12 13  2  0
 12 14  1  0
 14 15  2  0
 15 16  1  0
 16 17  2  0
 17 18  1  0
  8 19  1  0
 19 20  1  0
 20  5  1  0
 18 14  1  0
  1 21  1  0
  1 22  1  0
  1 23  1  0
  3 24  1  0
  3 25  1  0
  3 26  1  0
  4 27  1  0
  4 28  1  0
  4 29  1  0
  6 30  1  0
  7 31  1  0
  7 32  1  0
  9 33  1  0
  9 34  1  0
 10 35  1  0
 10 36  1  0
 11 37  1  0
 16 38  1  0
 17 39  1  0
 18 40  1  0
 19 41  1  0
 19 42  1  0
 20 43  1  0
 20 44  1  0
M  END
>  <Energy>  (408) 
444.53234910757453

>  <compound_id>  (408) 
58925

>  <target_id>  (408) 
1

>  <reference_id>  (408) 
80

>  <inspiration_ids>  (408) 
[85, 80]

>  <energy_score>  (408) 
364.55749753294094

>  <distance_score>  (408) 
7.346728439437137

>  <path>  (408) 
/opt/xchem-fragalysis-2/maxwin/BulkDock/SCRATCH/511024/C58925-P80/C58925-P80.minimised.mol

>  <scratch_subdir>  (408) 
/opt/xchem-fragalysis-2/maxwin/BulkDock/SCRATCH/511024/C58925-P80

>  <fragmenstein_runtime>  (408) 
10.36549425125122

>  <fragmenstein_outcome>  (408) 
too moved

>  <fragmenstein_mode>  (408) 
expansion

>  <fragmenstein_error>  (408) 


$$$$
C54447-P85
     RDKit          3D

 28 29  0  0  0  0  0  0  0  0999 V2000
    0.7452   -7.1050   11.6575 O   0  0  0  0  0  0  0  0  0  0  0  0
    1.5239   -7.7529   12.3426 C   0  0  0  0  0  0  0  0  0  0  0  0
    2.8208   -7.4351   12.4755 O   0  0  0  0  0  0  0  0  0  0  0  0
    1.1445   -9.0165   13.0885 C   0  0  0  0  0  0  0  0  0  0  0  0
    0.8782  -10.1611   12.0329 C   0  0  0  0  0  0  0  0  0  0  0  0
    0.3477  -11.3960   12.6831 C   0  0  0  0  0  0  0  0  0  0  0  0
    0.6322  -11.5820   13.9803 C   0  0  0  0  0  0  0  0  0  0  0  0
    1.4573  -10.6035   14.8286 C   0  0  0  0  0  0  0  0  0  0  0  0
    2.1751   -9.4208   14.1605 N   0  0  0  0  0  0  0  0  0  0  0  0
    2.2768   -8.2390   15.2657 C   0  0  0  0  0  0  0  0  0  0  0  0
    3.5541   -7.2034   15.4832 C   0  0  0  0  0  0  0  0  0  0  0  0
    4.3703   -7.1486   16.6126 C   0  0  0  0  0  0  0  0  0  0  0  0
    5.1087   -6.0059   16.5501 N   0  0  0  0  0  0  0  0  0  0  0  0
    4.4853   -5.2172   15.6358 C   0  0  0  0  0  0  0  0  0  0  0  0
    3.6705   -5.9435   14.8843 N   0  0  0  0  0  0  0  0  0  0  0  0
    3.2730   -8.0859   13.0541 H   0  0  0  0  0  0  0  0  0  0  0  0
    0.1998   -8.7747   13.6001 H   0  0  0  0  0  0  0  0  0  0  0  0
    1.7927  -10.4024   11.4861 H   0  0  0  0  0  0  0  0  0  0  0  0
    0.1442   -9.8018   11.3016 H   0  0  0  0  0  0  0  0  0  0  0  0
   -0.2566  -12.0996   12.1183 H   0  0  0  0  0  0  0  0  0  0  0  0
    0.1996  -12.4325   14.4965 H   0  0  0  0  0  0  0  0  0  0  0  0
    2.1733  -11.1338   15.4636 H   0  0  0  0  0  0  0  0  0  0  0  0
    0.7185  -10.1875   15.5307 H   0  0  0  0  0  0  0  0  0  0  0  0
    2.2287   -8.7468   16.2395 H   0  0  0  0  0  0  0  0  0  0  0  0
    1.3804   -7.6099   15.1960 H   0  0  0  0  0  0  0  0  0  0  0  0
    4.4203   -7.7980   17.4736 H   0  0  0  0  0  0  0  0  0  0  0  0
    5.7870   -5.7510   17.2442 H   0  0  0  0  0  0  0  0  0  0  0  0
    4.6856   -4.1619   15.5006 H   0  0  0  0  0  0  0  0  0  0  0  0
  1  2  2  0
  2  3  1  0
  2  4  1  0
  4  5  1  0
  5  6  1  0
  6  7  2  0
  7  8  1  0
  8  9  1  0
  9 10  1  0
 10 11  1  0
 11 12  2  0
 12 13  1  0
 13 14  1  0
 14 15  2  0
  9  4  1  0
 15 11  1  0
  3 16  1  0
  4 17  1  0
  5 18  1  0
  5 19  1  0
  6 20  1  0
  7 21  1  0
  8 22  1  0
  8 23  1  0
 10 24  1  0
 10 25  1  0
 12 26  1  0
 13 27  1  0
 14 28  1  0
M  END
>  <Energy>  (409) 
83.159352790998469

>  <compound_id>  (409) 
54447

>  <target_id>  (409) 
1

>  <reference_id>  (409) 
85

>  <inspiration_ids>  (409) 
[85, 80]

>  <energy_score>  (409) 
-4.912411233826788

>  <distance_score>  (409) 
9.228937343799402

>  <path>  (409) 
/opt/xchem-fragalysis-2/maxwin/BulkDock/SCRATCH/511024/C54447-P85/C54447-P85.minimised.mol

>  <scratch_subdir>  (409) 
/opt/xchem-fragalysis-2/maxwin/BulkDock/SCRATCH/511024/C54447-P85

>  <fragmenstein_runtime>  (409) 
4.038502216339111

>  <fragmenstein_outcome>  (409) 
too moved

>  <fragmenstein_mode>  (409) 
expansion

>  <fragmenstein_error>  (409) 


$$$$
C54447-P80
     RDKit          3D

 28 29  0  0  0  0  0  0  0  0999 V2000
    1.7641   -6.9595   15.1467 O   0  0  0  0  0  0  0  0  0  0  0  0
    2.6597   -7.2124   14.3516 C   0  0  0  0  0  0  0  0  0  0  0  0
    2.7179   -8.4067   13.7185 O   0  0  0  0  0  0  0  0  0  0  0  0
    3.8448   -6.2658   14.0262 C   0  0  0  0  0  0  0  0  0  0  0  0
    3.2105   -4.8650   13.7917 C   0  0  0  0  0  0  0  0  0  0  0  0
    2.6771   -4.6296   12.4205 C   0  0  0  0  0  0  0  0  0  0  0  0
    2.9929   -5.4384   11.4124 C   0  0  0  0  0  0  0  0  0  0  0  0
    3.8846   -6.6117   11.5668 C   0  0  0  0  0  0  0  0  0  0  0  0
    4.6836   -6.7567   12.8680 N   0  0  0  0  0  0  0  0  0  0  0  0
    6.4030   -7.4035   12.8842 C   0  0  0  0  0  0  0  0  0  0  0  0
    7.9597   -6.4579   12.2225 C   0  0  0  0  0  0  0  0  0  0  0  0
    8.5991   -5.1902   10.7100 C   0  0  0  0  0  0  0  0  0  0  0  0
   10.5205   -4.7308   11.3317 N   0  0  0  0  0  0  0  0  0  0  0  0
   10.5462   -4.8857   13.2374 C   0  0  0  0  0  0  0  0  0  0  0  0
    8.9160   -5.5984   13.7977 N   0  0  0  0  0  0  0  0  0  0  0  0
    3.5717   -8.4272   13.2420 H   0  0  0  0  0  0  0  0  0  0  0  0
    4.4120   -6.1502   14.9499 H   0  0  0  0  0  0  0  0  0  0  0  0
    3.9509   -4.0797   13.9885 H   0  0  0  0  0  0  0  0  0  0  0  0
    2.3995   -4.6845   14.5078 H   0  0  0  0  0  0  0  0  0  0  0  0
    2.0295   -3.7726   12.2593 H   0  0  0  0  0  0  0  0  0  0  0  0
    2.5780   -5.2507   10.4253 H   0  0  0  0  0  0  0  0  0  0  0  0
    4.4876   -6.6581   10.6507 H   0  0  0  0  0  0  0  0  0  0  0  0
    3.2020   -7.4595   11.5227 H   0  0  0  0  0  0  0  0  0  0  0  0
    6.8205   -8.0341   12.1515 H   0  0  0  0  0  0  0  0  0  0  0  0
    6.5300   -7.8921   13.8591 H   0  0  0  0  0  0  0  0  0  0  0  0
    8.6138   -5.2924    9.5728 H   0  0  0  0  0  0  0  0  0  0  0  0
   10.6151   -3.7846   11.2041 H   0  0  0  0  0  0  0  0  0  0  0  0
   11.0524   -4.0432   13.7171 H   0  0  0  0  0  0  0  0  0  0  0  0
  1  2  2  0
  2  3  1  0
  2  4  1  0
  4  5  1  0
  5  6  1  0
  6  7  2  0
  7  8  1  0
  8  9  1  0
  9 10  1  0
 10 11  1  0
 11 12  2  0
 12 13  1  0
 13 14  1  0
 14 15  2  0
  9  4  1  0
 15 11  1  0
  3 16  1  0
  4 17  1  0
  5 18  1  0
  5 19  1  0
  6 20  1  0
  7 21  1  0
  8 22  1  0
  8 23  1  0
 10 24  1  0
 10 25  1  0
 12 26  1  0
 13 27  1  0
 14 28  1  0
M  END
>  <Energy>  (410) 
818.77556320685323

>  <compound_id>  (410) 
54447

>  <target_id>  (410) 
1

>  <reference_id>  (410) 
80

>  <inspiration_ids>  (410) 
[85, 80]

>  <energy_score>  (410) 
733.8476618427084

>  <distance_score>  (410) 
10.544139454999629

>  <path>  (410) 
/opt/xchem-fragalysis-2/maxwin/BulkDock/SCRATCH/511024/C54447-P80/C54447-P80.minimised.mol

>  <scratch_subdir>  (410) 
/opt/xchem-fragalysis-2/maxwin/BulkDock/SCRATCH/511024/C54447-P80

>  <fragmenstein_runtime>  (410) 
8.557399988174438

>  <fragmenstein_outcome>  (410) 
too moved

>  <fragmenstein_mode>  (410) 
expansion

>  <fragmenstein_error>  (410) 


$$$$
C80991-P88
     RDKit          3D

 43 45  0  0  0  0  0  0  0  0999 V2000
   -0.3426  -17.9767   28.3255 C   0  0  0  0  0  0  0  0  0  0  0  0
   -0.6137  -17.2816   26.9905 C   0  0  0  0  0  0  0  0  0  0  0  0
   -2.0591  -16.7778   26.9381 C   0  0  0  0  0  0  0  0  0  0  0  0
   -0.3000  -18.1977   25.8312 C   0  0  0  0  0  0  0  0  0  0  0  0
   -1.2354  -19.1871   25.5246 N   0  0  0  0  0  0  0  0  0  0  0  0
   -0.7956  -19.8881   24.5075 C   0  0  0  0  0  0  0  0  0  0  0  0
    0.7337  -19.4269   23.8738 S   0  0  0  0  0  0  0  0  0  0  0  0
    0.8477  -18.1603   25.0183 C   0  0  0  0  0  0  0  0  0  0  0  0
    2.0197  -17.2437   25.1693 C   0  0  0  0  0  0  0  0  0  0  0  0
    2.3927  -17.1007   26.2991 O   0  0  0  0  0  0  0  0  0  0  0  0
    2.4598  -16.5946   23.9328 N   0  0  0  0  0  0  0  0  0  0  0  0
    3.4353  -15.4884   23.7051 C   0  0  0  0  0  0  0  0  0  0  0  0
    4.1077  -13.7875   22.7672 C   0  0  0  0  0  0  0  0  0  0  0  0
    5.5065  -13.9947   22.7452 C   0  0  0  0  0  0  0  0  0  0  0  0
    6.7262  -12.9995   23.7611 C   0  0  0  0  0  0  0  0  0  0  0  0
    6.7293  -11.3258   23.7453 C   0  0  0  0  0  0  0  0  0  0  0  0
    5.3778  -10.8809   23.6507 C   0  0  0  0  0  0  0  0  0  0  0  0
    4.1466  -12.2051   23.4772 C   0  0  0  0  0  0  0  0  0  0  0  0
    5.5403   -9.4253   24.2414 C   0  0  0  0  0  0  0  0  0  0  0  0
    6.5276   -8.4799   23.4703 C   0  0  0  0  0  0  0  0  0  0  0  0
    7.5253   -9.1864   22.6910 N   0  0  0  0  0  0  0  0  0  0  0  0
    7.9080  -10.3954   23.4253 C   0  0  0  0  0  0  0  0  0  0  0  0
   -0.9804  -18.8585   28.4551 H   0  0  0  0  0  0  0  0  0  0  0  0
    0.6991  -18.3097   28.3907 H   0  0  0  0  0  0  0  0  0  0  0  0
   -0.5309  -17.2970   29.1633 H   0  0  0  0  0  0  0  0  0  0  0  0
    0.0295  -16.3959   26.9337 H   0  0  0  0  0  0  0  0  0  0  0  0
   -2.2478  -16.0561   27.7399 H   0  0  0  0  0  0  0  0  0  0  0  0
   -2.2675  -16.2837   25.9832 H   0  0  0  0  0  0  0  0  0  0  0  0
   -2.7767  -17.5980   27.0485 H   0  0  0  0  0  0  0  0  0  0  0  0
   -1.3533  -20.7133   24.0847 H   0  0  0  0  0  0  0  0  0  0  0  0
    1.9834  -17.0202   23.1489 H   0  0  0  0  0  0  0  0  0  0  0  0
    4.1041  -16.2769   23.8782 H   0  0  0  0  0  0  0  0  0  0  0  0
    3.1996  -15.0109   24.6859 H   0  0  0  0  0  0  0  0  0  0  0  0
    5.9026  -14.8224   22.2027 H   0  0  0  0  0  0  0  0  0  0  0  0
    7.4094  -13.4456   24.4505 H   0  0  0  0  0  0  0  0  0  0  0  0
    3.3408  -12.0675   24.2013 H   0  0  0  0  0  0  0  0  0  0  0  0
    4.7044   -8.8076   24.5164 H   0  0  0  0  0  0  0  0  0  0  0  0
    5.9851   -9.5507   25.2337 H   0  0  0  0  0  0  0  0  0  0  0  0
    6.0039   -7.7992   22.7962 H   0  0  0  0  0  0  0  0  0  0  0  0
    7.0210   -7.8358   24.2104 H   0  0  0  0  0  0  0  0  0  0  0  0
    8.3477   -8.5958   22.5804 H   0  0  0  0  0  0  0  0  0  0  0  0
    8.5863  -10.8868   22.7214 H   0  0  0  0  0  0  0  0  0  0  0  0
    8.4406  -10.1348   24.3473 H   0  0  0  0  0  0  0  0  0  0  0  0
  1  2  1  0
  2  3  1  0
  2  4  1  0
  4  5  1  0
  5  6  2  0
  6  7  1  0
  7  8  1  0
  8  9  1  0
  9 10  2  0
  9 11  1  0
 11 12  1  0
 12 13  1  0
 13 14  2  0
 14 15  1  0
 15 16  2  0
 16 17  1  0
 17 18  2  0
 17 19  1  0
 19 20  1  0
 20 21  1  0
 21 22  1  0
  8  4  2  0
 18 13  1  0
 22 16  1  0
  1 23  1  0
  1 24  1  0
  1 25  1  0
  2 26  1  0
  3 27  1  0
  3 28  1  0
  3 29  1  0
  6 30  1  0
 11 31  1  0
 12 32  1  0
 12 33  1  0
 14 34  1  0
 15 35  1  0
 18 36  1  0
 19 37  1  0
 19 38  1  0
 20 39  1  0
 20 40  1  0
 21 41  1  0
 22 42  1  0
 22 43  1  0
M  END
>  <Energy>  (411) 
447.84145576048064

>  <compound_id>  (411) 
80991

>  <target_id>  (411) 
1

>  <reference_id>  (411) 
88

>  <inspiration_ids>  (411) 
[88, 146]

>  <energy_score>  (411) 
354.39380064558395

>  <distance_score>  (411) 
14.383994300756884

>  <path>  (411) 
/opt/xchem-fragalysis-2/maxwin/BulkDock/SCRATCH/511024/C80991-P88/C80991-P88.minimised.mol

>  <scratch_subdir>  (411) 
/opt/xchem-fragalysis-2/maxwin/BulkDock/SCRATCH/511024/C80991-P88

>  <fragmenstein_runtime>  (411) 
29.86305069923401

>  <fragmenstein_outcome>  (411) 
too moved

>  <fragmenstein_mode>  (411) 
expansion

>  <fragmenstein_error>  (411) 


$$$$
C80991-P146
     RDKit          3D

 43 45  0  0  0  0  0  0  0  0999 V2000
    4.6388  -19.0546   28.5497 C   0  0  0  0  0  0  0  0  0  0  0  0
    5.4758  -17.7951   28.8199 C   0  0  0  0  0  0  0  0  0  0  0  0
    6.0104  -17.8725   30.2560 C   0  0  0  0  0  0  0  0  0  0  0  0
    4.6894  -16.5138   28.6031 C   0  0  0  0  0  0  0  0  0  0  0  0
    3.3051  -16.5868   28.8271 N   0  0  0  0  0  0  0  0  0  0  0  0
    2.7984  -15.3827   28.8075 C   0  0  0  0  0  0  0  0  0  0  0  0
    3.9148  -14.1232   28.4991 S   0  0  0  0  0  0  0  0  0  0  0  0
    5.2112  -15.2322   28.2877 C   0  0  0  0  0  0  0  0  0  0  0  0
    6.6600  -14.7961   28.1282 C   0  0  0  0  0  0  0  0  0  0  0  0
    7.4275  -15.5728   28.6172 O   0  0  0  0  0  0  0  0  0  0  0  0
    6.8951  -13.4862   27.5109 N   0  0  0  0  0  0  0  0  0  0  0  0
    8.1300  -12.6823   27.3931 C   0  0  0  0  0  0  0  0  0  0  0  0
    8.6629  -11.8041   26.2340 C   0  0  0  0  0  0  0  0  0  0  0  0
    8.0205  -10.6746   25.7148 C   0  0  0  0  0  0  0  0  0  0  0  0
    8.7417   -9.6560   25.0411 C   0  0  0  0  0  0  0  0  0  0  0  0
   10.1245   -9.7519   24.8216 C   0  0  0  0  0  0  0  0  0  0  0  0
   10.7673  -10.9235   25.2211 C   0  0  0  0  0  0  0  0  0  0  0  0
   10.0421  -11.9190   25.9155 C   0  0  0  0  0  0  0  0  0  0  0  0
   12.2636  -11.0587   25.0653 C   0  0  0  0  0  0  0  0  0  0  0  0
   12.8476  -10.0417   24.0920 C   0  0  0  0  0  0  0  0  0  0  0  0
   12.3446   -8.7028   24.3825 N   0  0  0  0  0  0  0  0  0  0  0  0
   10.9022   -8.6415   24.1654 C   0  0  0  0  0  0  0  0  0  0  0  0
    3.8487  -19.1801   29.2994 H   0  0  0  0  0  0  0  0  0  0  0  0
    4.1515  -19.0219   27.5713 H   0  0  0  0  0  0  0  0  0  0  0  0
    5.2707  -19.9489   28.5822 H   0  0  0  0  0  0  0  0  0  0  0  0
    6.3223  -17.8081   28.1231 H   0  0  0  0  0  0  0  0  0  0  0  0
    5.1902  -17.9034   30.9828 H   0  0  0  0  0  0  0  0  0  0  0  0
    6.6319  -17.0090   30.5102 H   0  0  0  0  0  0  0  0  0  0  0  0
    6.6186  -18.7728   30.3947 H   0  0  0  0  0  0  0  0  0  0  0  0
    1.7476  -15.1901   28.9769 H   0  0  0  0  0  0  0  0  0  0  0  0
    6.0018  -13.0654   27.2757 H   0  0  0  0  0  0  0  0  0  0  0  0
    8.9218  -13.4028   27.6369 H   0  0  0  0  0  0  0  0  0  0  0  0
    8.0919  -12.0127   28.2633 H   0  0  0  0  0  0  0  0  0  0  0  0
    6.9604  -10.5111   25.8738 H   0  0  0  0  0  0  0  0  0  0  0  0
    8.1931   -8.7713   24.7217 H   0  0  0  0  0  0  0  0  0  0  0  0
   10.5997  -12.7732   26.3047 H   0  0  0  0  0  0  0  0  0  0  0  0
   12.5076  -12.0699   24.7185 H   0  0  0  0  0  0  0  0  0  0  0  0
   12.7216  -10.9232   26.0535 H   0  0  0  0  0  0  0  0  0  0  0  0
   13.9403  -10.0516   24.1668 H   0  0  0  0  0  0  0  0  0  0  0  0
   12.5840  -10.3647   23.0807 H   0  0  0  0  0  0  0  0  0  0  0  0
   12.8221   -7.9528   23.8920 H   0  0  0  0  0  0  0  0  0  0  0  0
   10.7058   -8.6607   23.0920 H   0  0  0  0  0  0  0  0  0  0  0  0
   10.5612   -7.6984   24.5944 H   0  0  0  0  0  0  0  0  0  0  0  0
  1  2  1  0
  2  3  1  0
  2  4  1  0
  4  5  1  0
  5  6  2  0
  6  7  1  0
  7  8  1  0
  8  9  1  0
  9 10  2  0
  9 11  1  0
 11 12  1  0
 12 13  1  0
 13 14  2  0
 14 15  1  0
 15 16  2  0
 16 17  1  0
 17 18  2  0
 17 19  1  0
 19 20  1  0
 20 21  1  0
 21 22  1  0
  8  4  2  0
 18 13  1  0
 22 16  1  0
  1 23  1  0
  1 24  1  0
  1 25  1  0
  2 26  1  0
  3 27  1  0
  3 28  1  0
  3 29  1  0
  6 30  1  0
 11 31  1  0
 12 32  1  0
 12 33  1  0
 14 34  1  0
 15 35  1  0
 18 36  1  0
 19 37  1  0
 19 38  1  0
 20 39  1  0
 20 40  1  0
 21 41  1  0
 22 42  1  0
 22 43  1  0
M  END
>  <Energy>  (412) 
50.091005252934394

>  <compound_id>  (412) 
80991

>  <target_id>  (412) 
1

>  <reference_id>  (412) 
146

>  <inspiration_ids>  (412) 
[88, 146]

>  <energy_score>  (412) 
-43.356649861964115

>  <distance_score>  (412) 
15.893629641648719

>  <path>  (412) 
/opt/xchem-fragalysis-2/maxwin/BulkDock/SCRATCH/511024/C80991-P146/C80991-P146.minimised.mol

>  <scratch_subdir>  (412) 
/opt/xchem-fragalysis-2/maxwin/BulkDock/SCRATCH/511024/C80991-P146

>  <fragmenstein_runtime>  (412) 
30.758450269699097

>  <fragmenstein_outcome>  (412) 
too moved

>  <fragmenstein_mode>  (412) 
expansion

>  <fragmenstein_error>  (412) 


$$$$
C80998-P88
     RDKit          3D

 44 46  0  0  0  0  0  0  0  0999 V2000
   -9.4869  -23.3311   31.0677 C   0  0  0  0  0  0  0  0  0  0  0  0
   -9.0686  -23.4696   29.6067 C   0  0  0  0  0  0  0  0  0  0  0  0
   -7.9963  -22.5636   29.2697 O   0  0  0  0  0  0  0  0  0  0  0  0
   -8.0866  -21.4416   28.1951 C   0  0  0  0  0  0  0  0  0  0  0  0
   -9.7492  -21.0573   28.3553 C   0  0  0  0  0  0  0  0  0  0  0  0
   -6.6416  -20.4602   27.2887 C   0  0  0  0  0  0  0  0  0  0  0  0
   -5.5821  -20.8330   26.5426 N   0  0  0  0  0  0  0  0  0  0  0  0
   -4.7471  -19.7035   25.7409 C   0  0  0  0  0  0  0  0  0  0  0  0
   -4.9464  -18.2856   25.8567 C   0  0  0  0  0  0  0  0  0  0  0  0
   -4.7678  -16.9275   24.7306 C   0  0  0  0  0  0  0  0  0  0  0  0
   -5.4734  -17.1004   23.7710 O   0  0  0  0  0  0  0  0  0  0  0  0
   -3.8373  -15.5507   25.0583 N   0  0  0  0  0  0  0  0  0  0  0  0
   -3.7231  -13.9747   24.1966 C   0  0  0  0  0  0  0  0  0  0  0  0
   -2.4238  -12.7037   23.8289 C   0  0  0  0  0  0  0  0  0  0  0  0
   -1.8171  -11.6584   24.9570 C   0  0  0  0  0  0  0  0  0  0  0  0
   -0.2367  -11.0679   25.0055 C   0  0  0  0  0  0  0  0  0  0  0  0
    0.8062  -11.5092   23.7929 C   0  0  0  0  0  0  0  0  0  0  0  0
    0.2193  -12.5748   22.5309 C   0  0  0  0  0  0  0  0  0  0  0  0
   -1.4771  -12.9748   22.5588 C   0  0  0  0  0  0  0  0  0  0  0  0
    1.9647  -12.4280   21.6539 C   0  0  0  0  0  0  0  0  0  0  0  0
    2.2871  -11.0570   21.4542 N   0  0  0  0  0  0  0  0  0  0  0  0
    1.2575  -10.5417   22.2555 C   0  0  0  0  0  0  0  0  0  0  0  0
   -6.3268  -18.3609   26.9450 S   0  0  0  0  0  0  0  0  0  0  0  0
  -10.0186  -22.3938   31.2506 H   0  0  0  0  0  0  0  0  0  0  0  0
   -8.6124  -23.3370   31.7256 H   0  0  0  0  0  0  0  0  0  0  0  0
  -10.1499  -24.1533   31.3536 H   0  0  0  0  0  0  0  0  0  0  0  0
   -9.9122  -23.4250   28.9143 H   0  0  0  0  0  0  0  0  0  0  0  0
   -8.6566  -24.4786   29.5009 H   0  0  0  0  0  0  0  0  0  0  0  0
   -8.1958  -22.0751   27.3391 H   0  0  0  0  0  0  0  0  0  0  0  0
   -9.9491  -20.0127   28.2580 H   0  0  0  0  0  0  0  0  0  0  0  0
  -10.3355  -21.6192   27.6150 H   0  0  0  0  0  0  0  0  0  0  0  0
  -10.2413  -21.3533   29.2854 H   0  0  0  0  0  0  0  0  0  0  0  0
   -4.0606  -20.1473   25.0250 H   0  0  0  0  0  0  0  0  0  0  0  0
   -3.4113  -15.6472   25.9728 H   0  0  0  0  0  0  0  0  0  0  0  0
   -4.4667  -13.3777   24.7373 H   0  0  0  0  0  0  0  0  0  0  0  0
   -4.1220  -14.2162   23.2048 H   0  0  0  0  0  0  0  0  0  0  0  0
   -2.4201  -11.4850   25.8523 H   0  0  0  0  0  0  0  0  0  0  0  0
    0.0977  -10.4483   25.8316 H   0  0  0  0  0  0  0  0  0  0  0  0
   -1.9311  -13.4698   21.6957 H   0  0  0  0  0  0  0  0  0  0  0  0
    2.8418  -12.6415   22.3020 H   0  0  0  0  0  0  0  0  0  0  0  0
    2.3176  -13.0823   20.8937 H   0  0  0  0  0  0  0  0  0  0  0  0
    2.1526  -10.9133   20.4533 H   0  0  0  0  0  0  0  0  0  0  0  0
    0.9777   -9.5767   22.7033 H   0  0  0  0  0  0  0  0  0  0  0  0
    0.6446  -10.4823   21.3572 H   0  0  0  0  0  0  0  0  0  0  0  0
  1  2  1  0
  2  3  1  0
  3  4  1  0
  4  5  1  0
  4  6  1  0
  6  7  2  0
  7  8  1  0
  8  9  2  0
  9 10  1  0
 10 11  2  0
 10 12  1  0
 12 13  1  0
 13 14  1  0
 14 15  2  0
 15 16  1  0
 16 17  2  0
 17 18  1  0
 18 19  2  0
 18 20  1  0
 20 21  1  0
 21 22  1  0
  9 23  1  0
 23  6  1  0
 19 14  1  0
 22 17  1  0
  1 24  1  0
  1 25  1  0
  1 26  1  0
  2 27  1  0
  2 28  1  0
  4 29  1  0
  5 30  1  0
  5 31  1  0
  5 32  1  0
  8 33  1  0
 12 34  1  0
 13 35  1  0
 13 36  1  0
 15 37  1  0
 16 38  1  0
 19 39  1  0
 20 40  1  0
 20 41  1  0
 21 42  1  0
 22 43  1  0
 22 44  1  0
M  END
>  <Energy>  (413) 
728.52951151949992

>  <compound_id>  (413) 
80998

>  <target_id>  (413) 
1

>  <reference_id>  (413) 
88

>  <inspiration_ids>  (413) 
[88, 146]

>  <energy_score>  (413) 
656.8062406264951

>  <distance_score>  (413) 
13.244486020143519

>  <path>  (413) 
/opt/xchem-fragalysis-2/maxwin/BulkDock/SCRATCH/511024/C80998-P88/C80998-P88.minimised.mol

>  <scratch_subdir>  (413) 
/opt/xchem-fragalysis-2/maxwin/BulkDock/SCRATCH/511024/C80998-P88

>  <fragmenstein_runtime>  (413) 
27.955085039138794

>  <fragmenstein_outcome>  (413) 
too moved

>  <fragmenstein_mode>  (413) 
expansion

>  <fragmenstein_error>  (413) 


$$$$
C80998-P146
     RDKit          3D

 44 46  0  0  0  0  0  0  0  0999 V2000
   -4.5306  -18.1496   26.6203 C   0  0  0  0  0  0  0  0  0  0  0  0
   -3.9098  -17.4302   25.4268 C   0  0  0  0  0  0  0  0  0  0  0  0
   -4.7170  -17.4302   24.2449 O   0  0  0  0  0  0  0  0  0  0  0  0
   -4.4095  -18.3638   23.1789 C   0  0  0  0  0  0  0  0  0  0  0  0
   -3.5752  -19.5880   23.5777 C   0  0  0  0  0  0  0  0  0  0  0  0
   -3.8573  -17.6969   21.8291 C   0  0  0  0  0  0  0  0  0  0  0  0
   -3.8790  -18.3453   20.6720 N   0  0  0  0  0  0  0  0  0  0  0  0
   -3.3635  -17.5825   19.5964 C   0  0  0  0  0  0  0  0  0  0  0  0
   -2.8603  -16.3156   19.8676 C   0  0  0  0  0  0  0  0  0  0  0  0
   -2.3976  -15.1363   18.9397 C   0  0  0  0  0  0  0  0  0  0  0  0
   -3.0295  -14.1341   19.1400 O   0  0  0  0  0  0  0  0  0  0  0  0
   -1.2414  -15.3910   18.0011 N   0  0  0  0  0  0  0  0  0  0  0  0
   -0.4118  -14.3772   17.0436 C   0  0  0  0  0  0  0  0  0  0  0  0
    1.0104  -14.4479   15.8317 C   0  0  0  0  0  0  0  0  0  0  0  0
    2.0286  -13.1639   15.0601 C   0  0  0  0  0  0  0  0  0  0  0  0
    2.2522  -12.6551   13.4599 C   0  0  0  0  0  0  0  0  0  0  0  0
    1.3711  -13.0308   12.4592 C   0  0  0  0  0  0  0  0  0  0  0  0
    0.3529  -14.0214   12.7292 C   0  0  0  0  0  0  0  0  0  0  0  0
    0.1466  -14.7923   14.1219 C   0  0  0  0  0  0  0  0  0  0  0  0
   -0.4259  -14.1361   11.4599 C   0  0  0  0  0  0  0  0  0  0  0  0
   -0.0202  -12.9693   10.6022 N   0  0  0  0  0  0  0  0  0  0  0  0
    1.3249  -12.5634   11.0576 C   0  0  0  0  0  0  0  0  0  0  0  0
   -3.1800  -16.0948   21.6373 S   0  0  0  0  0  0  0  0  0  0  0  0
   -5.4125  -17.6073   26.9663 H   0  0  0  0  0  0  0  0  0  0  0  0
   -4.8251  -19.1702   26.3769 H   0  0  0  0  0  0  0  0  0  0  0  0
   -3.8141  -18.1732   27.4456 H   0  0  0  0  0  0  0  0  0  0  0  0
   -2.8986  -17.7945   25.2238 H   0  0  0  0  0  0  0  0  0  0  0  0
   -3.7890  -16.3771   25.7066 H   0  0  0  0  0  0  0  0  0  0  0  0
   -5.3960  -18.7426   22.8787 H   0  0  0  0  0  0  0  0  0  0  0  0
   -3.8925  -20.0324   24.5210 H   0  0  0  0  0  0  0  0  0  0  0  0
   -3.6293  -20.3577   22.7999 H   0  0  0  0  0  0  0  0  0  0  0  0
   -2.5173  -19.3208   23.6809 H   0  0  0  0  0  0  0  0  0  0  0  0
   -3.4078  -18.0204   18.6059 H   0  0  0  0  0  0  0  0  0  0  0  0
   -0.8975  -16.3221   18.1474 H   0  0  0  0  0  0  0  0  0  0  0  0
   -1.2654  -14.1664   16.3847 H   0  0  0  0  0  0  0  0  0  0  0  0
   -0.2405  -13.4948   17.6306 H   0  0  0  0  0  0  0  0  0  0  0  0
    2.5399  -12.4573   15.7185 H   0  0  0  0  0  0  0  0  0  0  0  0
    3.0619  -11.9487   13.2572 H   0  0  0  0  0  0  0  0  0  0  0  0
   -0.8538  -15.2740   14.1372 H   0  0  0  0  0  0  0  0  0  0  0  0
   -1.5033  -14.1007   11.6465 H   0  0  0  0  0  0  0  0  0  0  0  0
   -0.1732  -15.0691   10.9463 H   0  0  0  0  0  0  0  0  0  0  0  0
   -0.6533  -12.2101   10.8530 H   0  0  0  0  0  0  0  0  0  0  0  0
    2.0923  -13.0629   10.4579 H   0  0  0  0  0  0  0  0  0  0  0  0
    1.4432  -11.4788   10.9766 H   0  0  0  0  0  0  0  0  0  0  0  0
  1  2  1  0
  2  3  1  0
  3  4  1  0
  4  5  1  0
  4  6  1  0
  6  7  2  0
  7  8  1  0
  8  9  2  0
  9 10  1  0
 10 11  2  0
 10 12  1  0
 12 13  1  0
 13 14  1  0
 14 15  2  0
 15 16  1  0
 16 17  2  0
 17 18  1  0
 18 19  2  0
 18 20  1  0
 20 21  1  0
 21 22  1  0
  9 23  1  0
 23  6  1  0
 19 14  1  0
 22 17  1  0
  1 24  1  0
  1 25  1  0
  1 26  1  0
  2 27  1  0
  2 28  1  0
  4 29  1  0
  5 30  1  0
  5 31  1  0
  5 32  1  0
  8 33  1  0
 12 34  1  0
 13 35  1  0
 13 36  1  0
 15 37  1  0
 16 38  1  0
 19 39  1  0
 20 40  1  0
 20 41  1  0
 21 42  1  0
 22 43  1  0
 22 44  1  0
M  END
>  <Energy>  (414) 
350.6111859020553

>  <compound_id>  (414) 
80998

>  <target_id>  (414) 
1

>  <reference_id>  (414) 
146

>  <inspiration_ids>  (414) 
[88, 146]

>  <energy_score>  (414) 
278.8879150090555

>  <distance_score>  (414) 
14.876638350442045

>  <path>  (414) 
/opt/xchem-fragalysis-2/maxwin/BulkDock/SCRATCH/511024/C80998-P146/C80998-P146.minimised.mol

>  <scratch_subdir>  (414) 
/opt/xchem-fragalysis-2/maxwin/BulkDock/SCRATCH/511024/C80998-P146

>  <fragmenstein_runtime>  (414) 
27.155556440353394

>  <fragmenstein_outcome>  (414) 
too moved

>  <fragmenstein_mode>  (414) 
expansion

>  <fragmenstein_error>  (414) 


$$$$
C81004-P88
     RDKit          3D

 41 43  0  0  0  0  0  0  0  0999 V2000
    8.4584   -4.5556   22.3840 C   0  0  0  0  0  0  0  0  0  0  0  0
    8.7022   -5.3765   21.2494 O   0  0  0  0  0  0  0  0  0  0  0  0
    9.4481   -6.5766   21.4976 C   0  0  0  0  0  0  0  0  0  0  0  0
   10.7957   -6.3023   22.1665 C   0  0  0  0  0  0  0  0  0  0  0  0
    8.5335   -7.6274   22.1773 C   0  0  0  0  0  0  0  0  0  0  0  0
    7.2531   -7.4965   22.5263 N   0  0  0  0  0  0  0  0  0  0  0  0
    6.6630   -8.7066   23.0466 C   0  0  0  0  0  0  0  0  0  0  0  0
    5.1664   -8.6717   23.5599 C   0  0  0  0  0  0  0  0  0  0  0  0
    4.3208   -9.8531   24.0525 N   0  0  0  0  0  0  0  0  0  0  0  0
    3.6134  -10.0671   25.3300 C   0  0  0  0  0  0  0  0  0  0  0  0
    3.5942   -9.4031   26.3279 O   0  0  0  0  0  0  0  0  0  0  0  0
    2.6141  -11.2885   25.4459 C   0  0  0  0  0  0  0  0  0  0  0  0
    1.8919  -11.6113   26.6222 C   0  0  0  0  0  0  0  0  0  0  0  0
    0.9762  -12.7233   26.5402 C   0  0  0  0  0  0  0  0  0  0  0  0
    0.9885  -13.2559   25.2718 C   0  0  0  0  0  0  0  0  0  0  0  0
    2.1091  -12.4242   24.2343 S   0  0  0  0  0  0  0  0  0  0  0  0
    0.1459  -14.4514   24.8666 C   0  0  0  0  0  0  0  0  0  0  0  0
   -0.9937  -14.6787   25.7972 N   0  0  0  0  0  0  0  0  0  0  0  0
   -0.5374  -14.6547   27.2031 C   0  0  0  0  0  0  0  0  0  0  0  0
    0.0663  -13.2872   27.6149 C   0  0  0  0  0  0  0  0  0  0  0  0
    7.5913   -9.7267   23.0502 C   0  0  0  0  0  0  0  0  0  0  0  0
    9.1227   -9.2299   22.4166 S   0  0  0  0  0  0  0  0  0  0  0  0
    7.7275   -3.7939   22.0981 H   0  0  0  0  0  0  0  0  0  0  0  0
    9.3760   -4.0425   22.6851 H   0  0  0  0  0  0  0  0  0  0  0  0
    8.0537   -5.1214   23.2269 H   0  0  0  0  0  0  0  0  0  0  0  0
    9.6685   -6.9775   20.4999 H   0  0  0  0  0  0  0  0  0  0  0  0
   10.6668   -6.0129   23.2151 H   0  0  0  0  0  0  0  0  0  0  0  0
   11.3186   -5.4838   21.6607 H   0  0  0  0  0  0  0  0  0  0  0  0
   11.4378   -7.1885   22.1478 H   0  0  0  0  0  0  0  0  0  0  0  0
    4.5772   -8.2459   22.7389 H   0  0  0  0  0  0  0  0  0  0  0  0
    5.1490   -7.9461   24.3821 H   0  0  0  0  0  0  0  0  0  0  0  0
    4.0456  -10.5684   23.4005 H   0  0  0  0  0  0  0  0  0  0  0  0
    2.0297  -11.0312   27.5297 H   0  0  0  0  0  0  0  0  0  0  0  0
    0.7770  -15.3477   24.8449 H   0  0  0  0  0  0  0  0  0  0  0  0
   -0.2545  -14.3047   23.8575 H   0  0  0  0  0  0  0  0  0  0  0  0
   -1.6498  -13.9088   25.6635 H   0  0  0  0  0  0  0  0  0  0  0  0
   -1.3825  -14.8888   27.8596 H   0  0  0  0  0  0  0  0  0  0  0  0
    0.2048  -15.4494   27.3509 H   0  0  0  0  0  0  0  0  0  0  0  0
   -0.7448  -12.5681   27.7837 H   0  0  0  0  0  0  0  0  0  0  0  0
    0.6207  -13.3959   28.5536 H   0  0  0  0  0  0  0  0  0  0  0  0
    7.4630  -10.7335   23.4079 H   0  0  0  0  0  0  0  0  0  0  0  0
  1  2  1  0
  2  3  1  0
  3  4  1  0
  3  5  1  0
  5  6  2  0
  6  7  1  0
  7  8  1  0
  8  9  1  0
  9 10  1  0
 10 11  2  0
 10 12  1  0
 12 13  2  0
 13 14  1  0
 14 15  2  0
 15 16  1  0
 15 17  1  0
 17 18  1  0
 18 19  1  0
 19 20  1  0
  7 21  2  0
 21 22  1  0
 22  5  1  0
 16 12  1  0
 20 14  1  0
  1 23  1  0
  1 24  1  0
  1 25  1  0
  3 26  1  0
  4 27  1  0
  4 28  1  0
  4 29  1  0
  8 30  1  0
  8 31  1  0
  9 32  1  0
 13 33  1  0
 17 34  1  0
 17 35  1  0
 18 36  1  0
 19 37  1  0
 19 38  1  0
 20 39  1  0
 20 40  1  0
 21 41  1  0
M  END
>  <Energy>  (415) 
86.68717282894147

>  <compound_id>  (415) 
81004

>  <target_id>  (415) 
1

>  <reference_id>  (415) 
88

>  <inspiration_ids>  (415) 
[88, 146]

>  <energy_score>  (415) 
-23.24961912779844

>  <distance_score>  (415) 
15.866948195829124

>  <path>  (415) 
/opt/xchem-fragalysis-2/maxwin/BulkDock/SCRATCH/511024/C81004-P88/C81004-P88.minimised.mol

>  <scratch_subdir>  (415) 
/opt/xchem-fragalysis-2/maxwin/BulkDock/SCRATCH/511024/C81004-P88

>  <fragmenstein_runtime>  (415) 
10.085152626037598

>  <fragmenstein_outcome>  (415) 
too moved

>  <fragmenstein_mode>  (415) 
expansion

>  <fragmenstein_error>  (415) 


$$$$
C81004-P146
     RDKit          3D

 41 43  0  0  0  0  0  0  0  0999 V2000
   10.1037   -6.2321   25.9240 C   0  0  0  0  0  0  0  0  0  0  0  0
   10.4827   -6.7956   24.6736 O   0  0  0  0  0  0  0  0  0  0  0  0
   11.2631   -7.9953   24.8093 C   0  0  0  0  0  0  0  0  0  0  0  0
   12.1629   -8.0416   23.5741 C   0  0  0  0  0  0  0  0  0  0  0  0
   10.2946   -9.1977   24.9663 C   0  0  0  0  0  0  0  0  0  0  0  0
    8.9965   -9.1313   25.2562 N   0  0  0  0  0  0  0  0  0  0  0  0
    8.3676  -10.4191   25.4640 C   0  0  0  0  0  0  0  0  0  0  0  0
    6.8728  -10.4302   25.9778 C   0  0  0  0  0  0  0  0  0  0  0  0
    5.9124  -11.5933   26.2358 N   0  0  0  0  0  0  0  0  0  0  0  0
    4.4697  -11.7498   25.9130 C   0  0  0  0  0  0  0  0  0  0  0  0
    3.7292  -11.0330   25.2987 O   0  0  0  0  0  0  0  0  0  0  0  0
    3.6666  -12.9593   26.5186 C   0  0  0  0  0  0  0  0  0  0  0  0
    2.2670  -13.1356   26.3373 C   0  0  0  0  0  0  0  0  0  0  0  0
    1.6555  -14.2222   27.0613 C   0  0  0  0  0  0  0  0  0  0  0  0
    2.6120  -14.9207   27.7603 C   0  0  0  0  0  0  0  0  0  0  0  0
    4.1969  -14.2401   27.5462 S   0  0  0  0  0  0  0  0  0  0  0  0
    2.2944  -16.0961   28.6654 C   0  0  0  0  0  0  0  0  0  0  0  0
    0.9283  -16.6386   28.4507 N   0  0  0  0  0  0  0  0  0  0  0  0
   -0.0740  -15.5651   28.3411 C   0  0  0  0  0  0  0  0  0  0  0  0
    0.2016  -14.6374   27.1302 C   0  0  0  0  0  0  0  0  0  0  0  0
    9.2729  -11.4338   25.2148 C   0  0  0  0  0  0  0  0  0  0  0  0
   10.8605  -10.8178   24.8448 S   0  0  0  0  0  0  0  0  0  0  0  0
   10.9920   -5.9100   26.4758 H   0  0  0  0  0  0  0  0  0  0  0  0
    9.4831   -5.3538   25.7269 H   0  0  0  0  0  0  0  0  0  0  0  0
    9.5254   -6.9361   26.5277 H   0  0  0  0  0  0  0  0  0  0  0  0
   11.8948   -7.9335   25.7047 H   0  0  0  0  0  0  0  0  0  0  0  0
   12.7486   -7.1193   23.4931 H   0  0  0  0  0  0  0  0  0  0  0  0
   12.8557   -8.8870   23.6139 H   0  0  0  0  0  0  0  0  0  0  0  0
   11.5675   -8.1207   22.6615 H   0  0  0  0  0  0  0  0  0  0  0  0
    6.3155   -9.7489   25.3291 H   0  0  0  0  0  0  0  0  0  0  0  0
    6.9194   -9.9331   26.9560 H   0  0  0  0  0  0  0  0  0  0  0  0
    6.1998  -12.3494   26.8434 H   0  0  0  0  0  0  0  0  0  0  0  0
    1.6977  -12.4466   25.7213 H   0  0  0  0  0  0  0  0  0  0  0  0
    3.0161  -16.9019   28.4938 H   0  0  0  0  0  0  0  0  0  0  0  0
    2.3922  -15.7725   29.7088 H   0  0  0  0  0  0  0  0  0  0  0  0
    0.6949  -17.2466   29.2333 H   0  0  0  0  0  0  0  0  0  0  0  0
   -0.0848  -14.9783   29.2684 H   0  0  0  0  0  0  0  0  0  0  0  0
   -1.0689  -16.0098   28.2297 H   0  0  0  0  0  0  0  0  0  0  0  0
   -0.0495  -15.1632   26.2008 H   0  0  0  0  0  0  0  0  0  0  0  0
   -0.4366  -13.7492   27.1960 H   0  0  0  0  0  0  0  0  0  0  0  0
    9.1253  -12.5031   25.2540 H   0  0  0  0  0  0  0  0  0  0  0  0
  1  2  1  0
  2  3  1  0
  3  4  1  0
  3  5  1  0
  5  6  2  0
  6  7  1  0
  7  8  1  0
  8  9  1  0
  9 10  1  0
 10 11  2  0
 10 12  1  0
 12 13  2  0
 13 14  1  0
 14 15  2  0
 15 16  1  0
 15 17  1  0
 17 18  1  0
 18 19  1  0
 19 20  1  0
  7 21  2  0
 21 22  1  0
 22  5  1  0
 16 12  1  0
 20 14  1  0
  1 23  1  0
  1 24  1  0
  1 25  1  0
  3 26  1  0
  4 27  1  0
  4 28  1  0
  4 29  1  0
  8 30  1  0
  8 31  1  0
  9 32  1  0
 13 33  1  0
 17 34  1  0
 17 35  1  0
 18 36  1  0
 19 37  1  0
 19 38  1  0
 20 39  1  0
 20 40  1  0
 21 41  1  0
M  END
>  <Energy>  (416) 
92.156569473741953

>  <compound_id>  (416) 
81004

>  <target_id>  (416) 
1

>  <reference_id>  (416) 
146

>  <inspiration_ids>  (416) 
[88, 146]

>  <energy_score>  (416) 
-17.78022248299385

>  <distance_score>  (416) 
15.923122786273712

>  <path>  (416) 
/opt/xchem-fragalysis-2/maxwin/BulkDock/SCRATCH/511024/C81004-P146/C81004-P146.minimised.mol

>  <scratch_subdir>  (416) 
/opt/xchem-fragalysis-2/maxwin/BulkDock/SCRATCH/511024/C81004-P146

>  <fragmenstein_runtime>  (416) 
20.156611442565918

>  <fragmenstein_outcome>  (416) 
too moved

>  <fragmenstein_mode>  (416) 
expansion

>  <fragmenstein_error>  (416) 


$$$$
C81005-P88
     RDKit          3D

 44 46  0  0  0  0  0  0  0  0999 V2000
    6.5025   -5.0986   22.0343 C   0  0  0  0  0  0  0  0  0  0  0  0
    7.7065   -5.7738   21.6684 O   0  0  0  0  0  0  0  0  0  0  0  0
    8.4177   -6.3103   22.7971 C   0  0  0  0  0  0  0  0  0  0  0  0
    9.8688   -6.5186   22.3398 C   0  0  0  0  0  0  0  0  0  0  0  0
    7.6660   -7.5666   23.3003 C   0  0  0  0  0  0  0  0  0  0  0  0
    6.6179   -7.5609   24.1311 N   0  0  0  0  0  0  0  0  0  0  0  0
    6.0639   -8.8730   24.3881 C   0  0  0  0  0  0  0  0  0  0  0  0
    4.8151   -8.9845   25.3867 C   0  0  0  0  0  0  0  0  0  0  0  0
    3.9239  -10.1871   25.8176 N   0  0  0  0  0  0  0  0  0  0  0  0
    3.1084  -11.1214   25.0212 C   0  0  0  0  0  0  0  0  0  0  0  0
    2.9947  -11.2353   23.8342 O   0  0  0  0  0  0  0  0  0  0  0  0
    2.1333  -12.0704   25.8585 C   0  0  0  0  0  0  0  0  0  0  0  0
    1.9317  -12.3981   27.2084 C   0  0  0  0  0  0  0  0  0  0  0  0
    0.8336  -13.3658   27.5064 C   0  0  0  0  0  0  0  0  0  0  0  0
    0.2034  -13.7563   26.3390 C   0  0  0  0  0  0  0  0  0  0  0  0
    0.9267  -13.0157   24.9612 S   0  0  0  0  0  0  0  0  0  0  0  0
   -0.9943  -14.6864   26.1747 C   0  0  0  0  0  0  0  0  0  0  0  0
   -1.0981  -15.7735   27.2535 C   0  0  0  0  0  0  0  0  0  0  0  0
   -1.5716  -15.2653   28.6184 C   0  0  0  0  0  0  0  0  0  0  0  0
   -0.9846  -14.0020   29.0693 N   0  0  0  0  0  0  0  0  0  0  0  0
    0.4672  -13.8909   28.8920 C   0  0  0  0  0  0  0  0  0  0  0  0
    6.8377   -9.8254   23.7577 C   0  0  0  0  0  0  0  0  0  0  0  0
    8.1070   -9.1501   22.7986 S   0  0  0  0  0  0  0  0  0  0  0  0
    5.7435   -5.8065   22.3759 H   0  0  0  0  0  0  0  0  0  0  0  0
    6.1151   -4.5899   21.1472 H   0  0  0  0  0  0  0  0  0  0  0  0
    6.6967   -4.3444   22.8028 H   0  0  0  0  0  0  0  0  0  0  0  0
    8.4265   -5.5736   23.6110 H   0  0  0  0  0  0  0  0  0  0  0  0
    9.9218   -7.1520   21.4473 H   0  0  0  0  0  0  0  0  0  0  0  0
   10.4758   -6.9682   23.1316 H   0  0  0  0  0  0  0  0  0  0  0  0
   10.3146   -5.5571   22.0617 H   0  0  0  0  0  0  0  0  0  0  0  0
    5.2441   -8.6674   26.3482 H   0  0  0  0  0  0  0  0  0  0  0  0
    4.1185   -8.1829   25.1225 H   0  0  0  0  0  0  0  0  0  0  0  0
    3.7132  -10.3172   26.7980 H   0  0  0  0  0  0  0  0  0  0  0  0
    2.5460  -11.9839   27.9983 H   0  0  0  0  0  0  0  0  0  0  0  0
   -0.9169  -15.1873   25.2011 H   0  0  0  0  0  0  0  0  0  0  0  0
   -1.9115  -14.0851   26.1536 H   0  0  0  0  0  0  0  0  0  0  0  0
   -0.1285  -16.2767   27.3615 H   0  0  0  0  0  0  0  0  0  0  0  0
   -1.8068  -16.5392   26.9139 H   0  0  0  0  0  0  0  0  0  0  0  0
   -1.3823  -16.0437   29.3674 H   0  0  0  0  0  0  0  0  0  0  0  0
   -2.6586  -15.1266   28.5841 H   0  0  0  0  0  0  0  0  0  0  0  0
   -1.2111  -13.8779   30.0551 H   0  0  0  0  0  0  0  0  0  0  0  0
    0.9812  -14.8378   29.0940 H   0  0  0  0  0  0  0  0  0  0  0  0
    0.8405  -13.1664   29.6263 H   0  0  0  0  0  0  0  0  0  0  0  0
    6.7536  -10.8903   23.8090 H   0  0  0  0  0  0  0  0  0  0  0  0
  1  2  1  0
  2  3  1  0
  3  4  1  0
  3  5  1  0
  5  6  2  0
  6  7  1  0
  7  8  1  0
  8  9  1  0
  9 10  1  0
 10 11  2  0
 10 12  1  0
 12 13  2  0
 13 14  1  0
 14 15  2  0
 15 16  1  0
 15 17  1  0
 17 18  1  0
 18 19  1  0
 19 20  1  0
 20 21  1  0
  7 22  2  0
 22 23  1  0
 23  5  1  0
 16 12  1  0
 21 14  1  0
  1 24  1  0
  1 25  1  0
  1 26  1  0
  3 27  1  0
  4 28  1  0
  4 29  1  0
  4 30  1  0
  8 31  1  0
  8 32  1  0
  9 33  1  0
 13 34  1  0
 17 35  1  0
 17 36  1  0
 18 37  1  0
 18 38  1  0
 19 39  1  0
 19 40  1  0
 20 41  1  0
 21 42  1  0
 21 43  1  0
 22 44  1  0
M  END
>  <Energy>  (417) 
78.000592193233445

>  <compound_id>  (417) 
81005

>  <target_id>  (417) 
1

>  <reference_id>  (417) 
88

>  <inspiration_ids>  (417) 
[88, 146]

>  <energy_score>  (417) 
3.343290195777172

>  <distance_score>  (417) 
15.82734279772967

>  <path>  (417) 
/opt/xchem-fragalysis-2/maxwin/BulkDock/SCRATCH/511024/C81005-P88/C81005-P88.minimised.mol

>  <scratch_subdir>  (417) 
/opt/xchem-fragalysis-2/maxwin/BulkDock/SCRATCH/511024/C81005-P88

>  <fragmenstein_runtime>  (417) 
10.778216123580933

>  <fragmenstein_outcome>  (417) 
too moved

>  <fragmenstein_mode>  (417) 
expansion

>  <fragmenstein_error>  (417) 


$$$$
C81005-P146
     RDKit          3D

 44 46  0  0  0  0  0  0  0  0999 V2000
    5.0338  -13.5252   19.6788 C   0  0  0  0  0  0  0  0  0  0  0  0
    4.2037  -14.0790   18.6596 O   0  0  0  0  0  0  0  0  0  0  0  0
    3.3055  -15.1503   18.9322 C   0  0  0  0  0  0  0  0  0  0  0  0
    2.5382  -15.2190   20.3140 C   0  0  0  0  0  0  0  0  0  0  0  0
    2.1713  -15.1930   17.9386 C   0  0  0  0  0  0  0  0  0  0  0  0
    0.9806  -14.6550   18.1852 N   0  0  0  0  0  0  0  0  0  0  0  0
    0.0132  -15.5935   17.8708 C   0  0  0  0  0  0  0  0  0  0  0  0
   -1.4145  -15.4744   18.3942 C   0  0  0  0  0  0  0  0  0  0  0  0
   -1.7514  -15.9881   19.7454 N   0  0  0  0  0  0  0  0  0  0  0  0
   -1.8767  -17.3418   20.2429 C   0  0  0  0  0  0  0  0  0  0  0  0
   -1.6610  -18.3910   19.7088 O   0  0  0  0  0  0  0  0  0  0  0  0
   -2.4774  -17.4263   21.6430 C   0  0  0  0  0  0  0  0  0  0  0  0
   -2.3607  -18.4677   22.5697 C   0  0  0  0  0  0  0  0  0  0  0  0
   -3.0857  -18.2842   23.8227 C   0  0  0  0  0  0  0  0  0  0  0  0
   -3.8313  -17.1195   23.7573 C   0  0  0  0  0  0  0  0  0  0  0  0
   -3.6109  -16.2902   22.2603 S   0  0  0  0  0  0  0  0  0  0  0  0
   -4.7333  -16.5342   24.8181 C   0  0  0  0  0  0  0  0  0  0  0  0
   -4.1477  -16.6898   26.2218 C   0  0  0  0  0  0  0  0  0  0  0  0
   -4.2504  -18.0941   26.8102 C   0  0  0  0  0  0  0  0  0  0  0  0
   -4.1443  -19.2039   25.8733 N   0  0  0  0  0  0  0  0  0  0  0  0
   -2.9628  -19.2113   25.0188 C   0  0  0  0  0  0  0  0  0  0  0  0
    0.4633  -16.5055   16.9261 C   0  0  0  0  0  0  0  0  0  0  0  0
    2.1617  -16.4197   16.7314 S   0  0  0  0  0  0  0  0  0  0  0  0
    5.6005  -12.6735   19.3213 H   0  0  0  0  0  0  0  0  0  0  0  0
    5.8777  -14.1282   19.9914 H   0  0  0  0  0  0  0  0  0  0  0  0
    4.4497  -13.2200   20.5317 H   0  0  0  0  0  0  0  0  0  0  0  0
    3.8714  -16.0805   18.7802 H   0  0  0  0  0  0  0  0  0  0  0  0
    1.4635  -15.0223   20.2850 H   0  0  0  0  0  0  0  0  0  0  0  0
    2.5124  -16.2677   20.6415 H   0  0  0  0  0  0  0  0  0  0  0  0
    2.9187  -14.5876   21.1210 H   0  0  0  0  0  0  0  0  0  0  0  0
   -1.6949  -14.4151   18.3936 H   0  0  0  0  0  0  0  0  0  0  0  0
   -2.0858  -15.9941   17.7006 H   0  0  0  0  0  0  0  0  0  0  0  0
   -2.0994  -15.3456   20.4459 H   0  0  0  0  0  0  0  0  0  0  0  0
   -1.7303  -19.3278   22.3698 H   0  0  0  0  0  0  0  0  0  0  0  0
   -5.7284  -16.9774   24.7473 H   0  0  0  0  0  0  0  0  0  0  0  0
   -4.8603  -15.4602   24.6297 H   0  0  0  0  0  0  0  0  0  0  0  0
   -3.0946  -16.3780   26.2132 H   0  0  0  0  0  0  0  0  0  0  0  0
   -4.6655  -15.9991   26.8993 H   0  0  0  0  0  0  0  0  0  0  0  0
   -5.2177  -18.1757   27.3129 H   0  0  0  0  0  0  0  0  0  0  0  0
   -3.4887  -18.1942   27.5915 H   0  0  0  0  0  0  0  0  0  0  0  0
   -4.1823  -20.0748   26.3989 H   0  0  0  0  0  0  0  0  0  0  0  0
   -2.0578  -18.9700   25.5888 H   0  0  0  0  0  0  0  0  0  0  0  0
   -2.8332  -20.2306   24.6343 H   0  0  0  0  0  0  0  0  0  0  0  0
   -0.1097  -17.2651   16.4140 H   0  0  0  0  0  0  0  0  0  0  0  0
  1  2  1  0
  2  3  1  0
  3  4  1  0
  3  5  1  0
  5  6  2  0
  6  7  1  0
  7  8  1  0
  8  9  1  0
  9 10  1  0
 10 11  2  0
 10 12  1  0
 12 13  2  0
 13 14  1  0
 14 15  2  0
 15 16  1  0
 15 17  1  0
 17 18  1  0
 18 19  1  0
 19 20  1  0
 20 21  1  0
  7 22  2  0
 22 23  1  0
 23  5  1  0
 16 12  1  0
 21 14  1  0
  1 24  1  0
  1 25  1  0
  1 26  1  0
  3 27  1  0
  4 28  1  0
  4 29  1  0
  4 30  1  0
  8 31  1  0
  8 32  1  0
  9 33  1  0
 13 34  1  0
 17 35  1  0
 17 36  1  0
 18 37  1  0
 18 38  1  0
 19 39  1  0
 19 40  1  0
 20 41  1  0
 21 42  1  0
 21 43  1  0
 22 44  1  0
M  END
>  <Energy>  (418) 
74.27878448496277

>  <compound_id>  (418) 
81005

>  <target_id>  (418) 
1

>  <reference_id>  (418) 
146

>  <inspiration_ids>  (418) 
[88, 146]

>  <energy_score>  (418) 
-0.37851751249081644

>  <distance_score>  (418) 
16.79509855626304

>  <path>  (418) 
/opt/xchem-fragalysis-2/maxwin/BulkDock/SCRATCH/511024/C81005-P146/C81005-P146.minimised.mol

>  <scratch_subdir>  (418) 
/opt/xchem-fragalysis-2/maxwin/BulkDock/SCRATCH/511024/C81005-P146

>  <fragmenstein_runtime>  (418) 
19.01779270172119

>  <fragmenstein_outcome>  (418) 
too moved

>  <fragmenstein_mode>  (418) 
expansion

>  <fragmenstein_error>  (418) 


$$$$
C81009-P88
     RDKit          3D

 32 34  0  0  0  0  0  0  0  0999 V2000
   -5.0337  -14.3234   25.1160 C   0  0  0  0  0  0  0  0  0  0  0  0
   -5.1495  -13.0201   25.0912 N   0  0  0  0  0  0  0  0  0  0  0  0
   -4.1240  -12.4569   24.3341 C   0  0  0  0  0  0  0  0  0  0  0  0
   -3.0634  -13.2758   23.9277 C   0  0  0  0  0  0  0  0  0  0  0  0
   -1.6369  -13.0474   22.8255 C   0  0  0  0  0  0  0  0  0  0  0  0
   -0.0263  -12.6830   22.6981 N   0  0  0  0  0  0  0  0  0  0  0  0
    1.2824  -11.4147   22.2926 C   0  0  0  0  0  0  0  0  0  0  0  0
    2.9391  -11.0654   21.9030 C   0  0  0  0  0  0  0  0  0  0  0  0
    4.5351  -10.4627   22.8161 C   0  0  0  0  0  0  0  0  0  0  0  0
    5.6076   -9.6411   22.2340 C   0  0  0  0  0  0  0  0  0  0  0  0
    5.3420   -9.1883   20.8538 C   0  0  0  0  0  0  0  0  0  0  0  0
    3.9332   -9.5180   19.8346 C   0  0  0  0  0  0  0  0  0  0  0  0
    2.8007  -10.5873   20.4090 C   0  0  0  0  0  0  0  0  0  0  0  0
    4.8327  -10.3178   18.4944 C   0  0  0  0  0  0  0  0  0  0  0  0
    6.2317   -9.9710   18.7147 N   0  0  0  0  0  0  0  0  0  0  0  0
    6.5944   -9.3540   20.0138 C   0  0  0  0  0  0  0  0  0  0  0  0
   -3.7807  -14.9588   24.1527 S   0  0  0  0  0  0  0  0  0  0  0  0
   -5.7280  -14.9591   25.6511 H   0  0  0  0  0  0  0  0  0  0  0  0
   -4.2188  -11.4041   24.0962 H   0  0  0  0  0  0  0  0  0  0  0  0
   -1.6309  -14.0694   22.9687 H   0  0  0  0  0  0  0  0  0  0  0  0
   -1.7684  -13.4069   21.8397 H   0  0  0  0  0  0  0  0  0  0  0  0
   -0.2634  -11.9117   23.3537 H   0  0  0  0  0  0  0  0  0  0  0  0
    1.7041  -12.2851   21.7540 H   0  0  0  0  0  0  0  0  0  0  0  0
    1.3193  -11.2803   23.3653 H   0  0  0  0  0  0  0  0  0  0  0  0
    4.7225  -10.9071   23.7995 H   0  0  0  0  0  0  0  0  0  0  0  0
    6.5590   -9.5087   22.7348 H   0  0  0  0  0  0  0  0  0  0  0  0
    1.7469  -10.4730   20.4331 H   0  0  0  0  0  0  0  0  0  0  0  0
    4.6003  -10.0689   17.4753 H   0  0  0  0  0  0  0  0  0  0  0  0
    4.6475  -11.3950   18.4862 H   0  0  0  0  0  0  0  0  0  0  0  0
    6.2974   -9.2592   18.0072 H   0  0  0  0  0  0  0  0  0  0  0  0
    7.1057   -8.3961   19.9934 H   0  0  0  0  0  0  0  0  0  0  0  0
    7.3455   -9.9679   20.5206 H   0  0  0  0  0  0  0  0  0  0  0  0
  1  2  2  0
  2  3  1  0
  3  4  2  0
  4  5  1  0
  5  6  1  0
  6  7  1  0
  7  8  1  0
  8  9  2  0
  9 10  1  0
 10 11  2  0
 11 12  1  0
 12 13  2  0
 12 14  1  0
 14 15  1  0
 15 16  1  0
  4 17  1  0
 17  1  1  0
 13  8  1  0
 16 11  1  0
  1 18  1  0
  3 19  1  0
  5 20  1  0
  5 21  1  0
  6 22  1  0
  7 23  1  0
  7 24  1  0
  9 25  1  0
 10 26  1  0
 13 27  1  0
 14 28  1  0
 14 29  1  0
 15 30  1  0
 16 31  1  0
 16 32  1  0
M  END
>  <Energy>  (419) 
566.93813106168818

>  <compound_id>  (419) 
81009

>  <target_id>  (419) 
1

>  <reference_id>  (419) 
88

>  <inspiration_ids>  (419) 
[88, 146]

>  <energy_score>  (419) 
476.70993260759764

>  <distance_score>  (419) 
13.30985978516032

>  <path>  (419) 
/opt/xchem-fragalysis-2/maxwin/BulkDock/SCRATCH/511024/C81009-P88/C81009-P88.minimised.mol

>  <scratch_subdir>  (419) 
/opt/xchem-fragalysis-2/maxwin/BulkDock/SCRATCH/511024/C81009-P88

>  <fragmenstein_runtime>  (419) 
7.3960120677948

>  <fragmenstein_outcome>  (419) 
too moved

>  <fragmenstein_mode>  (419) 
expansion

>  <fragmenstein_error>  (419) 


$$$$
C81009-P146
     RDKit          3D

 32 34  0  0  0  0  0  0  0  0999 V2000
   -7.0918  -16.3005   22.5773 C   0  0  0  0  0  0  0  0  0  0  0  0
   -7.5635  -15.3337   23.3308 N   0  0  0  0  0  0  0  0  0  0  0  0
   -7.5411  -14.1499   22.6063 C   0  0  0  0  0  0  0  0  0  0  0  0
   -7.0608  -14.2132   21.3029 C   0  0  0  0  0  0  0  0  0  0  0  0
   -7.0352  -13.1266   20.2249 C   0  0  0  0  0  0  0  0  0  0  0  0
   -5.7340  -12.4238   20.0035 N   0  0  0  0  0  0  0  0  0  0  0  0
   -5.8148  -11.1679   19.1322 C   0  0  0  0  0  0  0  0  0  0  0  0
   -4.4925  -10.4055   18.7104 C   0  0  0  0  0  0  0  0  0  0  0  0
   -3.3466  -11.1228   18.3890 C   0  0  0  0  0  0  0  0  0  0  0  0
   -2.1585  -10.4885   17.9750 C   0  0  0  0  0  0  0  0  0  0  0  0
   -2.0840   -9.1240   17.7518 C   0  0  0  0  0  0  0  0  0  0  0  0
   -3.2213   -8.3809   17.9694 C   0  0  0  0  0  0  0  0  0  0  0  0
   -4.4096   -8.9954   18.4609 C   0  0  0  0  0  0  0  0  0  0  0  0
   -2.9497   -6.9725   17.5250 C   0  0  0  0  0  0  0  0  0  0  0  0
   -1.5035   -6.8769   17.1811 N   0  0  0  0  0  0  0  0  0  0  0  0
   -0.9717   -8.2613   17.2401 C   0  0  0  0  0  0  0  0  0  0  0  0
   -6.6222  -15.8531   20.9859 S   0  0  0  0  0  0  0  0  0  0  0  0
   -7.0022  -17.3216   22.9220 H   0  0  0  0  0  0  0  0  0  0  0  0
   -7.9147  -13.2490   23.0782 H   0  0  0  0  0  0  0  0  0  0  0  0
   -7.3563  -13.5642   19.2719 H   0  0  0  0  0  0  0  0  0  0  0  0
   -7.7879  -12.3771   20.5011 H   0  0  0  0  0  0  0  0  0  0  0  0
   -5.3883  -12.1063   20.9033 H   0  0  0  0  0  0  0  0  0  0  0  0
   -6.3162  -11.4409   18.1960 H   0  0  0  0  0  0  0  0  0  0  0  0
   -6.4462  -10.4444   19.6614 H   0  0  0  0  0  0  0  0  0  0  0  0
   -3.3373  -12.2050   18.5237 H   0  0  0  0  0  0  0  0  0  0  0  0
   -1.3249  -11.1581   17.8879 H   0  0  0  0  0  0  0  0  0  0  0  0
   -5.2953   -8.3812   18.6080 H   0  0  0  0  0  0  0  0  0  0  0  0
   -3.2080   -6.2543   18.3088 H   0  0  0  0  0  0  0  0  0  0  0  0
   -3.5410   -6.7486   16.6309 H   0  0  0  0  0  0  0  0  0  0  0  0
   -1.0421   -6.3473   17.9148 H   0  0  0  0  0  0  0  0  0  0  0  0
   -0.6935   -8.5547   16.2241 H   0  0  0  0  0  0  0  0  0  0  0  0
   -0.0985   -8.3030   17.8976 H   0  0  0  0  0  0  0  0  0  0  0  0
  1  2  2  0
  2  3  1  0
  3  4  2  0
  4  5  1  0
  5  6  1  0
  6  7  1  0
  7  8  1  0
  8  9  2  0
  9 10  1  0
 10 11  2  0
 11 12  1  0
 12 13  2  0
 12 14  1  0
 14 15  1  0
 15 16  1  0
  4 17  1  0
 17  1  1  0
 13  8  1  0
 16 11  1  0
  1 18  1  0
  3 19  1  0
  5 20  1  0
  5 21  1  0
  6 22  1  0
  7 23  1  0
  7 24  1  0
  9 25  1  0
 10 26  1  0
 13 27  1  0
 14 28  1  0
 14 29  1  0
 15 30  1  0
 16 31  1  0
 16 32  1  0
M  END
>  <Energy>  (420) 
36.049971673713159

>  <compound_id>  (420) 
81009

>  <target_id>  (420) 
1

>  <reference_id>  (420) 
146

>  <inspiration_ids>  (420) 
[88, 146]

>  <energy_score>  (420) 
-54.17822678038203

>  <distance_score>  (420) 
15.685140522430855

>  <path>  (420) 
/opt/xchem-fragalysis-2/maxwin/BulkDock/SCRATCH/511024/C81009-P146/C81009-P146.minimised.mol

>  <scratch_subdir>  (420) 
/opt/xchem-fragalysis-2/maxwin/BulkDock/SCRATCH/511024/C81009-P146

>  <fragmenstein_runtime>  (420) 
14.613016843795776

>  <fragmenstein_outcome>  (420) 
too moved

>  <fragmenstein_mode>  (420) 
expansion

>  <fragmenstein_error>  (420) 


$$$$
C81012-P88
     RDKit          3D

 34 36  0  0  0  0  0  0  0  0999 V2000
    7.6800   -8.2477   26.5556 C   0  0  0  0  0  0  0  0  0  0  0  0
    6.5700   -8.2452   25.4936 C   0  0  0  0  0  0  0  0  0  0  0  0
    5.1152   -7.8758   26.1371 C   0  0  0  0  0  0  0  0  0  0  0  0
    4.1902   -8.7984   27.0345 N   0  0  0  0  0  0  0  0  0  0  0  0
    3.6905  -10.1630   26.8175 C   0  0  0  0  0  0  0  0  0  0  0  0
    3.9258  -10.9397   25.9476 O   0  0  0  0  0  0  0  0  0  0  0  0
    2.5937  -10.7350   27.7578 C   0  0  0  0  0  0  0  0  0  0  0  0
    1.3543  -10.2551   28.2316 C   0  0  0  0  0  0  0  0  0  0  0  0
    0.4717  -11.3024   28.7105 C   0  0  0  0  0  0  0  0  0  0  0  0
    1.0388  -12.5323   28.6272 C   0  0  0  0  0  0  0  0  0  0  0  0
    2.5927  -12.5240   28.0146 S   0  0  0  0  0  0  0  0  0  0  0  0
    0.1370  -13.6178   29.0776 C   0  0  0  0  0  0  0  0  0  0  0  0
   -1.1845  -12.9204   29.2181 N   0  0  0  0  0  0  0  0  0  0  0  0
   -0.9141  -11.4383   29.2498 C   0  0  0  0  0  0  0  0  0  0  0  0
    7.1465   -7.3676   24.3147 C   0  0  0  0  0  0  0  0  0  0  0  0
    7.9222   -7.8690   23.3598 N   0  0  0  0  0  0  0  0  0  0  0  0
    8.4936   -6.8719   22.5803 C   0  0  0  0  0  0  0  0  0  0  0  0
    8.1456   -5.5906   22.9318 C   0  0  0  0  0  0  0  0  0  0  0  0
    7.0751   -5.6405   24.2826 S   0  0  0  0  0  0  0  0  0  0  0  0
    7.4050   -8.8930   27.3958 H   0  0  0  0  0  0  0  0  0  0  0  0
    7.8548   -7.2431   26.9563 H   0  0  0  0  0  0  0  0  0  0  0  0
    8.6263   -8.6180   26.1454 H   0  0  0  0  0  0  0  0  0  0  0  0
    6.4687   -9.2554   25.0791 H   0  0  0  0  0  0  0  0  0  0  0  0
    4.4657   -7.6066   25.2979 H   0  0  0  0  0  0  0  0  0  0  0  0
    5.2360   -6.9668   26.7384 H   0  0  0  0  0  0  0  0  0  0  0  0
    3.8440   -8.4560   27.9241 H   0  0  0  0  0  0  0  0  0  0  0  0
    1.0580   -9.2178   28.1412 H   0  0  0  0  0  0  0  0  0  0  0  0
    0.4464  -14.0132   30.0499 H   0  0  0  0  0  0  0  0  0  0  0  0
    0.0618  -14.4344   28.3538 H   0  0  0  0  0  0  0  0  0  0  0  0
   -1.6901  -13.0996   28.3502 H   0  0  0  0  0  0  0  0  0  0  0  0
   -1.6479  -10.9050   28.6386 H   0  0  0  0  0  0  0  0  0  0  0  0
   -0.9656  -11.0807   30.2829 H   0  0  0  0  0  0  0  0  0  0  0  0
    9.1562   -7.1507   21.7708 H   0  0  0  0  0  0  0  0  0  0  0  0
    8.4487   -4.6551   22.4848 H   0  0  0  0  0  0  0  0  0  0  0  0
  1  2  1  0
  2  3  1  0
  3  4  1  0
  4  5  1  0
  5  6  2  0
  5  7  1  0
  7  8  2  0
  8  9  1  0
  9 10  2  0
 10 11  1  0
 10 12  1  0
 12 13  1  0
 13 14  1  0
  2 15  1  0
 15 16  2  0
 16 17  1  0
 17 18  2  0
 18 19  1  0
 11  7  1  0
 19 15  1  0
 14  9  1  0
  1 20  1  0
  1 21  1  0
  1 22  1  0
  2 23  1  0
  3 24  1  0
  3 25  1  0
  4 26  1  0
  8 27  1  0
 12 28  1  0
 12 29  1  0
 13 30  1  0
 14 31  1  0
 14 32  1  0
 17 33  1  0
 18 34  1  0
M  END
>  <Energy>  (421) 
66.996511898982561

>  <compound_id>  (421) 
81012

>  <target_id>  (421) 
1

>  <reference_id>  (421) 
88

>  <inspiration_ids>  (421) 
[88, 146]

>  <energy_score>  (421) 
-33.48092438229463

>  <distance_score>  (421) 
16.844519068048907

>  <path>  (421) 
/opt/xchem-fragalysis-2/maxwin/BulkDock/SCRATCH/511024/C81012-P88/C81012-P88.minimised.mol

>  <scratch_subdir>  (421) 
/opt/xchem-fragalysis-2/maxwin/BulkDock/SCRATCH/511024/C81012-P88

>  <fragmenstein_runtime>  (421) 
11.125403642654419

>  <fragmenstein_outcome>  (421) 
too moved

>  <fragmenstein_mode>  (421) 
expansion

>  <fragmenstein_error>  (421) 


$$$$
C81012-P146
     RDKit          3D

 34 36  0  0  0  0  0  0  0  0999 V2000
    2.3262  -17.4690   19.6294 C   0  0  0  0  0  0  0  0  0  0  0  0
    1.9766  -16.1598   20.3928 C   0  0  0  0  0  0  0  0  0  0  0  0
    1.9066  -16.5447   21.9127 C   0  0  0  0  0  0  0  0  0  0  0  0
    0.6075  -16.9191   22.5254 N   0  0  0  0  0  0  0  0  0  0  0  0
   -0.3839  -16.1224   23.1980 C   0  0  0  0  0  0  0  0  0  0  0  0
   -0.4511  -14.9388   23.3647 O   0  0  0  0  0  0  0  0  0  0  0  0
   -1.4481  -16.9563   23.8783 C   0  0  0  0  0  0  0  0  0  0  0  0
   -2.5311  -16.4675   24.6308 C   0  0  0  0  0  0  0  0  0  0  0  0
   -3.2072  -17.4881   25.3422 C   0  0  0  0  0  0  0  0  0  0  0  0
   -2.6881  -18.7133   25.0731 C   0  0  0  0  0  0  0  0  0  0  0  0
   -1.4219  -18.7018   23.9764 S   0  0  0  0  0  0  0  0  0  0  0  0
   -3.3328  -19.7739   25.8665 C   0  0  0  0  0  0  0  0  0  0  0  0
   -4.2077  -19.0006   26.7836 N   0  0  0  0  0  0  0  0  0  0  0  0
   -4.2847  -17.5818   26.3518 C   0  0  0  0  0  0  0  0  0  0  0  0
    2.8472  -15.1160   19.6712 C   0  0  0  0  0  0  0  0  0  0  0  0
    2.8803  -15.0886   18.3552 N   0  0  0  0  0  0  0  0  0  0  0  0
    4.1982  -15.1892   18.1292 C   0  0  0  0  0  0  0  0  0  0  0  0
    4.9264  -14.2883   18.8693 C   0  0  0  0  0  0  0  0  0  0  0  0
    4.2125  -13.6487   20.2116 S   0  0  0  0  0  0  0  0  0  0  0  0
    3.3837  -17.7406   19.7002 H   0  0  0  0  0  0  0  0  0  0  0  0
    1.7411  -18.3105   20.0203 H   0  0  0  0  0  0  0  0  0  0  0  0
    2.0686  -17.4038   18.5652 H   0  0  0  0  0  0  0  0  0  0  0  0
    0.9422  -15.9461   20.0957 H   0  0  0  0  0  0  0  0  0  0  0  0
    2.3894  -15.8423   22.5918 H   0  0  0  0  0  0  0  0  0  0  0  0
    2.4301  -17.4926   22.0627 H   0  0  0  0  0  0  0  0  0  0  0  0
    0.2978  -17.8850   22.5071 H   0  0  0  0  0  0  0  0  0  0  0  0
   -2.7368  -15.4070   24.7210 H   0  0  0  0  0  0  0  0  0  0  0  0
   -3.9058  -20.4451   25.2263 H   0  0  0  0  0  0  0  0  0  0  0  0
   -2.6116  -20.3556   26.4473 H   0  0  0  0  0  0  0  0  0  0  0  0
   -5.1395  -19.4026   26.8694 H   0  0  0  0  0  0  0  0  0  0  0  0
   -5.2509  -17.3540   25.8977 H   0  0  0  0  0  0  0  0  0  0  0  0
   -4.1122  -16.9191   27.2040 H   0  0  0  0  0  0  0  0  0  0  0  0
    4.4498  -15.7784   17.2556 H   0  0  0  0  0  0  0  0  0  0  0  0
    5.9220  -13.9628   18.9733 H   0  0  0  0  0  0  0  0  0  0  0  0
  1  2  1  0
  2  3  1  0
  3  4  1  0
  4  5  1  0
  5  6  2  0
  5  7  1  0
  7  8  2  0
  8  9  1  0
  9 10  2  0
 10 11  1  0
 10 12  1  0
 12 13  1  0
 13 14  1  0
  2 15  1  0
 15 16  2  0
 16 17  1  0
 17 18  2  0
 18 19  1  0
 11  7  1  0
 19 15  1  0
 14  9  1  0
  1 20  1  0
  1 21  1  0
  1 22  1  0
  2 23  1  0
  3 24  1  0
  3 25  1  0
  4 26  1  0
  8 27  1  0
 12 28  1  0
 12 29  1  0
 13 30  1  0
 14 31  1  0
 14 32  1  0
 17 33  1  0
 18 34  1  0
M  END
>  <Energy>  (422) 
109.84536761771413

>  <compound_id>  (422) 
81012

>  <target_id>  (422) 
1

>  <reference_id>  (422) 
146

>  <inspiration_ids>  (422) 
[88, 146]

>  <energy_score>  (422) 
9.36793133643954

>  <distance_score>  (422) 
16.48436898902573

>  <path>  (422) 
/opt/xchem-fragalysis-2/maxwin/BulkDock/SCRATCH/511024/C81012-P146/C81012-P146.minimised.mol

>  <scratch_subdir>  (422) 
/opt/xchem-fragalysis-2/maxwin/BulkDock/SCRATCH/511024/C81012-P146

>  <fragmenstein_runtime>  (422) 
12.598163843154907

>  <fragmenstein_outcome>  (422) 
too moved

>  <fragmenstein_mode>  (422) 
expansion

>  <fragmenstein_error>  (422) 


$$$$
C81017-P88
     RDKit          3D

 37 39  0  0  0  0  0  0  0  0999 V2000
   -1.7457  -15.3845   16.0073 C   0  0  0  0  0  0  0  0  0  0  0  0
   -0.9659  -16.3348   16.4443 N   0  0  0  0  0  0  0  0  0  0  0  0
    0.3326  -16.0721   16.0109 C   0  0  0  0  0  0  0  0  0  0  0  0
    0.6393  -14.7942   15.5098 C   0  0  0  0  0  0  0  0  0  0  0  0
    1.9860  -14.0522   14.9895 C   0  0  0  0  0  0  0  0  0  0  0  0
    3.1854  -13.3748   15.9415 C   0  0  0  0  0  0  0  0  0  0  0  0
    4.1118  -12.3064   15.3405 O   0  0  0  0  0  0  0  0  0  0  0  0
    4.9535  -11.3040   15.9390 C   0  0  0  0  0  0  0  0  0  0  0  0
    5.5670  -10.4550   14.9723 C   0  0  0  0  0  0  0  0  0  0  0  0
    6.3357   -9.2506   15.2272 C   0  0  0  0  0  0  0  0  0  0  0  0
    6.5515   -8.7437   16.5142 C   0  0  0  0  0  0  0  0  0  0  0  0
    6.0168   -9.6865   17.6507 C   0  0  0  0  0  0  0  0  0  0  0  0
    5.2456  -10.9283   17.2919 C   0  0  0  0  0  0  0  0  0  0  0  0
    6.6629   -9.4408   19.3027 C   0  0  0  0  0  0  0  0  0  0  0  0
    7.6983   -8.2339   20.2371 C   0  0  0  0  0  0  0  0  0  0  0  0
    9.0302   -7.2286   19.7096 N   0  0  0  0  0  0  0  0  0  0  0  0
    9.1295   -6.7261   18.0339 C   0  0  0  0  0  0  0  0  0  0  0  0
    7.4990   -7.2361   16.8339 C   0  0  0  0  0  0  0  0  0  0  0  0
   -0.9549  -14.1753   15.0789 S   0  0  0  0  0  0  0  0  0  0  0  0
   -2.8153  -15.3796   16.1699 H   0  0  0  0  0  0  0  0  0  0  0  0
    1.0190  -16.8931   16.1303 H   0  0  0  0  0  0  0  0  0  0  0  0
    1.6841  -13.2728   14.2803 H   0  0  0  0  0  0  0  0  0  0  0  0
    2.4900  -14.7687   14.3256 H   0  0  0  0  0  0  0  0  0  0  0  0
    2.7551  -12.9088   16.7837 H   0  0  0  0  0  0  0  0  0  0  0  0
    3.8737  -14.1650   16.2384 H   0  0  0  0  0  0  0  0  0  0  0  0
    5.4182  -10.7211   13.9225 H   0  0  0  0  0  0  0  0  0  0  0  0
    6.7683   -8.8121   14.3463 H   0  0  0  0  0  0  0  0  0  0  0  0
    4.8160  -11.5334   18.0783 H   0  0  0  0  0  0  0  0  0  0  0  0
    7.2653  -10.3375   19.3883 H   0  0  0  0  0  0  0  0  0  0  0  0
    5.8088   -9.4418   19.9523 H   0  0  0  0  0  0  0  0  0  0  0  0
    8.1830   -8.8512   21.0105 H   0  0  0  0  0  0  0  0  0  0  0  0
    7.0358   -7.5876   20.8266 H   0  0  0  0  0  0  0  0  0  0  0  0
    9.8768   -7.7914   19.8638 H   0  0  0  0  0  0  0  0  0  0  0  0
    9.6587   -5.8338   17.7850 H   0  0  0  0  0  0  0  0  0  0  0  0
   10.0399   -7.3268   17.7723 H   0  0  0  0  0  0  0  0  0  0  0  0
    8.0975   -7.0837   16.0385 H   0  0  0  0  0  0  0  0  0  0  0  0
    6.5657   -6.6945   16.7697 H   0  0  0  0  0  0  0  0  0  0  0  0
  1  2  2  0
  2  3  1  0
  3  4  2  0
  4  5  1  0
  5  6  1  0
  6  7  1  0
  7  8  1  0
  8  9  2  0
  9 10  1  0
 10 11  2  0
 11 12  1  0
 12 13  2  0
 12 14  1  0
 14 15  1  0
 15 16  1  0
 16 17  1  0
 17 18  1  0
  4 19  1  0
 19  1  1  0
 13  8  1  0
 18 11  1  0
  1 20  1  0
  3 21  1  0
  5 22  1  0
  5 23  1  0
  6 24  1  0
  6 25  1  0
  9 26  1  0
 10 27  1  0
 13 28  1  0
 14 29  1  0
 14 30  1  0
 15 31  1  0
 15 32  1  0
 16 33  1  0
 17 34  1  0
 17 35  1  0
 18 36  1  0
 18 37  1  0
M  END
>  <Energy>  (423) 
377.30999429439311

>  <compound_id>  (423) 
81017

>  <target_id>  (423) 
1

>  <reference_id>  (423) 
88

>  <inspiration_ids>  (423) 
[88, 146]

>  <energy_score>  (423) 
246.84182910222034

>  <distance_score>  (423) 
15.392286877547916

>  <path>  (423) 
/opt/xchem-fragalysis-2/maxwin/BulkDock/SCRATCH/511024/C81017-P88/C81017-P88.minimised.mol

>  <scratch_subdir>  (423) 
/opt/xchem-fragalysis-2/maxwin/BulkDock/SCRATCH/511024/C81017-P88

>  <fragmenstein_runtime>  (423) 
8.79712176322937

>  <fragmenstein_outcome>  (423) 
too moved

>  <fragmenstein_mode>  (423) 
expansion

>  <fragmenstein_error>  (423) 


$$$$
C81017-P146
     RDKit          3D

 37 39  0  0  0  0  0  0  0  0999 V2000
   -2.1671  -14.3438   28.7614 C   0  0  0  0  0  0  0  0  0  0  0  0
   -1.7826  -14.6408   27.5429 N   0  0  0  0  0  0  0  0  0  0  0  0
   -0.5646  -14.0228   27.2820 C   0  0  0  0  0  0  0  0  0  0  0  0
   -0.0303  -13.2201   28.2870 C   0  0  0  0  0  0  0  0  0  0  0  0
    1.3447  -12.5263   28.3983 C   0  0  0  0  0  0  0  0  0  0  0  0
    1.5997  -11.0653   27.7959 C   0  0  0  0  0  0  0  0  0  0  0  0
    2.9534  -10.4650   28.1662 O   0  0  0  0  0  0  0  0  0  0  0  0
    3.6064   -9.4453   27.4274 C   0  0  0  0  0  0  0  0  0  0  0  0
    3.0150   -8.5962   26.5097 C   0  0  0  0  0  0  0  0  0  0  0  0
    3.8055   -7.7028   25.7297 C   0  0  0  0  0  0  0  0  0  0  0  0
    5.2172   -7.6124   25.8001 C   0  0  0  0  0  0  0  0  0  0  0  0
    5.8492   -8.4837   26.6826 C   0  0  0  0  0  0  0  0  0  0  0  0
    5.0315   -9.3482   27.5122 C   0  0  0  0  0  0  0  0  0  0  0  0
    7.3633   -8.5246   26.8115 C   0  0  0  0  0  0  0  0  0  0  0  0
    8.1767   -8.4613   25.5024 C   0  0  0  0  0  0  0  0  0  0  0  0
    8.4135   -7.1472   24.8759 N   0  0  0  0  0  0  0  0  0  0  0  0
    7.3680   -6.1713   25.1695 C   0  0  0  0  0  0  0  0  0  0  0  0
    5.9209   -6.6077   24.9025 C   0  0  0  0  0  0  0  0  0  0  0  0
   -1.1243  -13.2916   29.6313 S   0  0  0  0  0  0  0  0  0  0  0  0
   -3.0823  -14.7274   29.1933 H   0  0  0  0  0  0  0  0  0  0  0  0
   -0.0908  -14.2038   26.3234 H   0  0  0  0  0  0  0  0  0  0  0  0
    1.6289  -12.4827   29.4585 H   0  0  0  0  0  0  0  0  0  0  0  0
    2.0880  -13.1953   27.9448 H   0  0  0  0  0  0  0  0  0  0  0  0
    1.5795  -11.1076   26.7085 H   0  0  0  0  0  0  0  0  0  0  0  0
    0.8426  -10.3666   28.1645 H   0  0  0  0  0  0  0  0  0  0  0  0
    1.9411   -8.6008   26.3664 H   0  0  0  0  0  0  0  0  0  0  0  0
    3.2733   -7.0597   25.0375 H   0  0  0  0  0  0  0  0  0  0  0  0
    5.5378  -10.0166   28.2100 H   0  0  0  0  0  0  0  0  0  0  0  0
    7.6280   -9.4754   27.2940 H   0  0  0  0  0  0  0  0  0  0  0  0
    7.6843   -7.7411   27.5088 H   0  0  0  0  0  0  0  0  0  0  0  0
    9.1706   -8.8771   25.7138 H   0  0  0  0  0  0  0  0  0  0  0  0
    7.7424   -9.1421   24.7690 H   0  0  0  0  0  0  0  0  0  0  0  0
    9.3007   -6.7806   25.2197 H   0  0  0  0  0  0  0  0  0  0  0  0
    7.5721   -5.2953   24.5414 H   0  0  0  0  0  0  0  0  0  0  0  0
    7.4628   -5.8224   26.2054 H   0  0  0  0  0  0  0  0  0  0  0  0
    5.8393   -6.9517   23.8714 H   0  0  0  0  0  0  0  0  0  0  0  0
    5.3353   -5.6857   24.9963 H   0  0  0  0  0  0  0  0  0  0  0  0
  1  2  2  0
  2  3  1  0
  3  4  2  0
  4  5  1  0
  5  6  1  0
  6  7  1  0
  7  8  1  0
  8  9  2  0
  9 10  1  0
 10 11  2  0
 11 12  1  0
 12 13  2  0
 12 14  1  0
 14 15  1  0
 15 16  1  0
 16 17  1  0
 17 18  1  0
  4 19  1  0
 19  1  1  0
 13  8  1  0
 18 11  1  0
  1 20  1  0
  3 21  1  0
  5 22  1  0
  5 23  1  0
  6 24  1  0
  6 25  1  0
  9 26  1  0
 10 27  1  0
 13 28  1  0
 14 29  1  0
 14 30  1  0
 15 31  1  0
 15 32  1  0
 16 33  1  0
 17 34  1  0
 17 35  1  0
 18 36  1  0
 18 37  1  0
M  END
>  <Energy>  (424) 
87.354616908270472

>  <compound_id>  (424) 
81017

>  <target_id>  (424) 
1

>  <reference_id>  (424) 
146

>  <inspiration_ids>  (424) 
[88, 146]

>  <energy_score>  (424) 
-43.11354828389847

>  <distance_score>  (424) 
15.141394669009708

>  <path>  (424) 
/opt/xchem-fragalysis-2/maxwin/BulkDock/SCRATCH/511024/C81017-P146/C81017-P146.minimised.mol

>  <scratch_subdir>  (424) 
/opt/xchem-fragalysis-2/maxwin/BulkDock/SCRATCH/511024/C81017-P146

>  <fragmenstein_runtime>  (424) 
12.949981451034546

>  <fragmenstein_outcome>  (424) 
too moved

>  <fragmenstein_mode>  (424) 
expansion

>  <fragmenstein_error>  (424) 


$$$$
C55934-P7
     RDKit          3D

 39 41  0  0  0  0  0  0  0  0999 V2000
   -4.0601    0.9158   34.0501 C   0  0  0  0  0  0  0  0  0  0  0  0
   -4.0059   -0.3402   33.3454 N   0  0  0  0  0  0  0  0  0  0  0  0
   -4.9980   -1.2118   33.6257 N   0  0  0  0  0  0  0  0  0  0  0  0
   -4.6394   -2.3174   32.9859 C   0  0  0  0  0  0  0  0  0  0  0  0
   -3.4671   -2.1388   32.2430 C   0  0  0  0  0  0  0  0  0  0  0  0
   -3.0658   -0.8304   32.4489 C   0  0  0  0  0  0  0  0  0  0  0  0
   -1.8123   -0.1242   31.9158 C   0  0  0  0  0  0  0  0  0  0  0  0
   -1.3703   -0.5435   30.4716 C   0  0  0  0  0  0  0  0  0  0  0  0
    0.0220   -0.2488   30.0877 N   0  0  0  0  0  0  0  0  0  0  0  0
    0.6453   -0.1318   28.7768 C   0  0  0  0  0  0  0  0  0  0  0  0
    0.1685   -0.1669   27.6798 O   0  0  0  0  0  0  0  0  0  0  0  0
    2.2254   -0.0089   28.8796 C   0  0  0  0  0  0  0  0  0  0  0  0
    2.6498    0.1776   29.9858 O   0  0  0  0  0  0  0  0  0  0  0  0
    2.9176   -0.1653   27.6129 N   0  0  0  0  0  0  0  0  0  0  0  0
    4.3461   -0.2404   27.3053 C   0  0  0  0  0  0  0  0  0  0  0  0
    4.7966   -0.1755   25.8527 C   0  0  0  0  0  0  0  0  0  0  0  0
    4.3478   -0.8692   24.7290 C   0  0  0  0  0  0  0  0  0  0  0  0
    5.2310   -0.5607   23.7331 N   0  0  0  0  0  0  0  0  0  0  0  0
    5.4141   -0.8994   22.4135 C   0  0  0  0  0  0  0  0  0  0  0  0
    6.5039   -0.3010   21.9007 C   0  0  0  0  0  0  0  0  0  0  0  0
    7.3503    0.7275   23.0721 S   0  0  0  0  0  0  0  0  0  0  0  0
    6.1554    0.2900   24.2551 C   0  0  0  0  0  0  0  0  0  0  0  0
    5.9523    0.5577   25.5157 N   0  0  0  0  0  0  0  0  0  0  0  0
   -4.0558    0.7126   35.1243 H   0  0  0  0  0  0  0  0  0  0  0  0
   -3.1910    1.5228   33.7911 H   0  0  0  0  0  0  0  0  0  0  0  0
   -4.9775    1.4357   33.7628 H   0  0  0  0  0  0  0  0  0  0  0  0
   -5.2294   -3.2141   33.0818 H   0  0  0  0  0  0  0  0  0  0  0  0
   -2.9663   -2.8801   31.6388 H   0  0  0  0  0  0  0  0  0  0  0  0
   -0.9945   -0.3447   32.6134 H   0  0  0  0  0  0  0  0  0  0  0  0
   -1.9573    0.9606   31.9298 H   0  0  0  0  0  0  0  0  0  0  0  0
   -2.0260   -0.0788   29.7266 H   0  0  0  0  0  0  0  0  0  0  0  0
   -1.4690   -1.6263   30.3425 H   0  0  0  0  0  0  0  0  0  0  0  0
    0.7496   -0.2561   30.8029 H   0  0  0  0  0  0  0  0  0  0  0  0
    2.2391   -0.3927   26.8897 H   0  0  0  0  0  0  0  0  0  0  0  0
    4.7022   -1.1849   27.7329 H   0  0  0  0  0  0  0  0  0  0  0  0
    4.8313    0.5613   27.8737 H   0  0  0  0  0  0  0  0  0  0  0  0
    3.5316   -1.5651   24.5868 H   0  0  0  0  0  0  0  0  0  0  0  0
    4.7253   -1.5646   21.9155 H   0  0  0  0  0  0  0  0  0  0  0  0
    6.8430   -0.3986   20.8808 H   0  0  0  0  0  0  0  0  0  0  0  0
  1  2  1  0
  2  3  1  0
  3  4  2  0
  4  5  1  0
  5  6  2  0
  6  7  1  0
  7  8  1  0
  8  9  1  0
  9 10  1  0
 10 11  2  0
 10 12  1  0
 12 13  2  0
 12 14  1  0
 14 15  1  0
 15 16  1  0
 16 17  2  0
 17 18  1  0
 18 19  1  0
 19 20  2  0
 20 21  1  0
 21 22  1  0
 22 23  2  0
  6  2  1  0
 23 16  1  0
 22 18  1  0
  1 24  1  0
  1 25  1  0
  1 26  1  0
  4 27  1  0
  5 28  1  0
  7 29  1  0
  7 30  1  0
  8 31  1  0
  8 32  1  0
  9 33  1  0
 14 34  1  0
 15 35  1  0
 15 36  1  0
 17 37  1  0
 19 38  1  0
 20 39  1  0
M  END
>  <Energy>  (425) 
85.378388337336389

>  <compound_id>  (425) 
55934

>  <target_id>  (425) 
1

>  <reference_id>  (425) 
7

>  <inspiration_ids>  (425) 
[7, 103]

>  <energy_score>  (425) 
-23.4787533917208

>  <distance_score>  (425) 
11.751074290570664

>  <path>  (425) 
/opt/xchem-fragalysis-2/maxwin/BulkDock/SCRATCH/511024/C55934-P7/C55934-P7.minimised.mol

>  <scratch_subdir>  (425) 
/opt/xchem-fragalysis-2/maxwin/BulkDock/SCRATCH/511024/C55934-P7

>  <fragmenstein_runtime>  (425) 
13.194600105285645

>  <fragmenstein_outcome>  (425) 
too moved

>  <fragmenstein_mode>  (425) 
expansion

>  <fragmenstein_error>  (425) 


$$$$
C55934-P103
     RDKit          3D

 39 41  0  0  0  0  0  0  0  0999 V2000
   -4.8676   -2.2805   32.5949 C   0  0  0  0  0  0  0  0  0  0  0  0
   -4.1841   -1.0476   32.9162 N   0  0  0  0  0  0  0  0  0  0  0  0
   -4.8164   -0.2322   33.7876 N   0  0  0  0  0  0  0  0  0  0  0  0
   -3.9506    0.7486   34.0083 C   0  0  0  0  0  0  0  0  0  0  0  0
   -2.7929    0.6075   33.2246 C   0  0  0  0  0  0  0  0  0  0  0  0
   -2.9592   -0.5510   32.4783 C   0  0  0  0  0  0  0  0  0  0  0  0
   -1.9804   -1.2236   31.4931 C   0  0  0  0  0  0  0  0  0  0  0  0
   -1.2029   -0.2624   30.5252 C   0  0  0  0  0  0  0  0  0  0  0  0
   -0.1322   -0.8677   29.6989 N   0  0  0  0  0  0  0  0  0  0  0  0
    0.7102   -0.2918   28.6526 C   0  0  0  0  0  0  0  0  0  0  0  0
    0.6934    0.7941   28.1444 O   0  0  0  0  0  0  0  0  0  0  0  0
    1.8190   -1.3133   28.1333 C   0  0  0  0  0  0  0  0  0  0  0  0
    1.8016   -2.3986   28.6444 O   0  0  0  0  0  0  0  0  0  0  0  0
    2.7214   -0.7440   27.1427 N   0  0  0  0  0  0  0  0  0  0  0  0
    3.8301   -1.3494   26.3905 C   0  0  0  0  0  0  0  0  0  0  0  0
    4.4830   -0.5488   25.2620 C   0  0  0  0  0  0  0  0  0  0  0  0
    4.1948    0.7091   24.7343 C   0  0  0  0  0  0  0  0  0  0  0  0
    5.0865    0.8971   23.7148 N   0  0  0  0  0  0  0  0  0  0  0  0
    5.3480    1.8722   22.7791 C   0  0  0  0  0  0  0  0  0  0  0  0
    6.3662    1.5228   21.9726 C   0  0  0  0  0  0  0  0  0  0  0  0
    7.0404   -0.0653   22.3712 S   0  0  0  0  0  0  0  0  0  0  0  0
    5.8818   -0.2033   23.6590 C   0  0  0  0  0  0  0  0  0  0  0  0
    5.5814   -1.1000   24.5601 N   0  0  0  0  0  0  0  0  0  0  0  0
   -5.9344   -2.0715   32.4778 H   0  0  0  0  0  0  0  0  0  0  0  0
   -4.7008   -2.9782   33.4180 H   0  0  0  0  0  0  0  0  0  0  0  0
   -4.4728   -2.6687   31.6584 H   0  0  0  0  0  0  0  0  0  0  0  0
   -4.1988    1.5219   34.7243 H   0  0  0  0  0  0  0  0  0  0  0  0
   -1.9284    1.2569   33.2174 H   0  0  0  0  0  0  0  0  0  0  0  0
   -1.2460   -1.7747   32.0945 H   0  0  0  0  0  0  0  0  0  0  0  0
   -2.5046   -1.9709   30.8896 H   0  0  0  0  0  0  0  0  0  0  0  0
   -0.7194    0.5371   31.0975 H   0  0  0  0  0  0  0  0  0  0  0  0
   -1.9020    0.2260   29.8371 H   0  0  0  0  0  0  0  0  0  0  0  0
    0.1162   -1.8493   29.8240 H   0  0  0  0  0  0  0  0  0  0  0  0
    2.4848    0.2328   27.0016 H   0  0  0  0  0  0  0  0  0  0  0  0
    3.4652   -2.3006   25.9897 H   0  0  0  0  0  0  0  0  0  0  0  0
    4.6013   -1.5932   27.1301 H   0  0  0  0  0  0  0  0  0  0  0  0
    3.4488    1.4469   24.9884 H   0  0  0  0  0  0  0  0  0  0  0  0
    4.7673    2.7804   22.7473 H   0  0  0  0  0  0  0  0  0  0  0  0
    6.7494    2.1137   21.1540 H   0  0  0  0  0  0  0  0  0  0  0  0
  1  2  1  0
  2  3  1  0
  3  4  2  0
  4  5  1  0
  5  6  2  0
  6  7  1  0
  7  8  1  0
  8  9  1  0
  9 10  1  0
 10 11  2  0
 10 12  1  0
 12 13  2  0
 12 14  1  0
 14 15  1  0
 15 16  1  0
 16 17  2  0
 17 18  1  0
 18 19  1  0
 19 20  2  0
 20 21  1  0
 21 22  1  0
 22 23  2  0
  6  2  1  0
 23 16  1  0
 22 18  1  0
  1 24  1  0
  1 25  1  0
  1 26  1  0
  4 27  1  0
  5 28  1  0
  7 29  1  0
  7 30  1  0
  8 31  1  0
  8 32  1  0
  9 33  1  0
 14 34  1  0
 15 35  1  0
 15 36  1  0
 17 37  1  0
 19 38  1  0
 20 39  1  0
M  END
>  <Energy>  (426) 
85.750273719491886

>  <compound_id>  (426) 
55934

>  <target_id>  (426) 
1

>  <reference_id>  (426) 
103

>  <inspiration_ids>  (426) 
[7, 103]

>  <energy_score>  (426) 
-23.10686800956381

>  <distance_score>  (426) 
11.445180486076508

>  <path>  (426) 
/opt/xchem-fragalysis-2/maxwin/BulkDock/SCRATCH/511024/C55934-P103/C55934-P103.minimised.mol

>  <scratch_subdir>  (426) 
/opt/xchem-fragalysis-2/maxwin/BulkDock/SCRATCH/511024/C55934-P103

>  <fragmenstein_runtime>  (426) 
12.392688751220703

>  <fragmenstein_outcome>  (426) 
too moved

>  <fragmenstein_mode>  (426) 
expansion

>  <fragmenstein_error>  (426) 


$$$$
C55935-P7
     RDKit          3D

 34 36  0  0  0  0  0  0  0  0999 V2000
   -5.0981   -1.4353   33.1535 C   0  0  0  0  0  0  0  0  0  0  0  0
   -4.1241   -1.4756   32.0790 N   0  0  0  0  0  0  0  0  0  0  0  0
   -2.8946   -0.8728   32.0227 C   0  0  0  0  0  0  0  0  0  0  0  0
   -2.3052   -1.2214   30.8061 C   0  0  0  0  0  0  0  0  0  0  0  0
   -0.9424   -0.8301   30.3172 C   0  0  0  0  0  0  0  0  0  0  0  0
   -0.2021   -0.1740   31.0517 O   0  0  0  0  0  0  0  0  0  0  0  0
   -0.4607   -1.2289   28.8337 C   0  0  0  0  0  0  0  0  0  0  0  0
    0.9268   -1.2319   28.2342 N   0  0  0  0  0  0  0  0  0  0  0  0
    1.7621   -0.1438   27.7654 C   0  0  0  0  0  0  0  0  0  0  0  0
    1.5954    1.0416   27.8093 O   0  0  0  0  0  0  0  0  0  0  0  0
    3.0247   -0.6075   26.9924 C   0  0  0  0  0  0  0  0  0  0  0  0
    3.9821    0.2431   26.4259 C   0  0  0  0  0  0  0  0  0  0  0  0
    4.8032   -0.5185   25.6188 N   0  0  0  0  0  0  0  0  0  0  0  0
    5.8859   -0.1419   24.8079 C   0  0  0  0  0  0  0  0  0  0  0  0
    6.5144   -1.0684   24.0602 C   0  0  0  0  0  0  0  0  0  0  0  0
    6.0376   -2.4414   24.1109 C   0  0  0  0  0  0  0  0  0  0  0  0
    5.0056   -2.7979   24.9067 C   0  0  0  0  0  0  0  0  0  0  0  0
    4.3415   -1.8246   25.7255 C   0  0  0  0  0  0  0  0  0  0  0  0
    3.3302   -1.9134   26.5885 N   0  0  0  0  0  0  0  0  0  0  0  0
   -3.3037   -2.0335   30.2146 C   0  0  0  0  0  0  0  0  0  0  0  0
   -4.3929   -2.1940   30.9764 N   0  0  0  0  0  0  0  0  0  0  0  0
   -6.0795   -1.2195   32.7238 H   0  0  0  0  0  0  0  0  0  0  0  0
   -4.8158   -0.6487   33.8573 H   0  0  0  0  0  0  0  0  0  0  0  0
   -5.0923   -2.4087   33.6487 H   0  0  0  0  0  0  0  0  0  0  0  0
   -2.5167   -0.2728   32.8397 H   0  0  0  0  0  0  0  0  0  0  0  0
   -1.0414   -0.5739   28.1722 H   0  0  0  0  0  0  0  0  0  0  0  0
   -0.8095   -2.2559   28.6756 H   0  0  0  0  0  0  0  0  0  0  0  0
    1.3467   -2.1166   27.9536 H   0  0  0  0  0  0  0  0  0  0  0  0
    4.0841    1.3171   26.4764 H   0  0  0  0  0  0  0  0  0  0  0  0
    6.1599    0.9044   24.8136 H   0  0  0  0  0  0  0  0  0  0  0  0
    7.3502   -0.8181   23.4187 H   0  0  0  0  0  0  0  0  0  0  0  0
    6.5344   -3.1781   23.4887 H   0  0  0  0  0  0  0  0  0  0  0  0
    4.6419   -3.8176   24.9419 H   0  0  0  0  0  0  0  0  0  0  0  0
   -3.2817   -2.5298   29.2527 H   0  0  0  0  0  0  0  0  0  0  0  0
  1  2  1  0
  2  3  1  0
  3  4  2  0
  4  5  1  0
  5  6  2  0
  5  7  1  0
  7  8  1  0
  8  9  1  0
  9 10  2  0
  9 11  1  0
 11 12  2  0
 12 13  1  0
 13 14  1  0
 14 15  2  0
 15 16  1  0
 16 17  2  0
 17 18  1  0
 18 19  2  0
  4 20  1  0
 20 21  2  0
 21  2  1  0
 19 11  1  0
 18 13  1  0
  1 22  1  0
  1 23  1  0
  1 24  1  0
  3 25  1  0
  7 26  1  0
  7 27  1  0
  8 28  1  0
 12 29  1  0
 14 30  1  0
 15 31  1  0
 16 32  1  0
 17 33  1  0
 20 34  1  0
M  END
>  <Energy>  (427) 
90.186140030698141

>  <compound_id>  (427) 
55935

>  <target_id>  (427) 
1

>  <reference_id>  (427) 
7

>  <inspiration_ids>  (427) 
[7, 103]

>  <energy_score>  (427) 
-8.240685941384811

>  <distance_score>  (427) 
12.379775700650208

>  <path>  (427) 
/opt/xchem-fragalysis-2/maxwin/BulkDock/SCRATCH/511024/C55935-P7/C55935-P7.minimised.mol

>  <scratch_subdir>  (427) 
/opt/xchem-fragalysis-2/maxwin/BulkDock/SCRATCH/511024/C55935-P7

>  <fragmenstein_runtime>  (427) 
7.29220986366272

>  <fragmenstein_outcome>  (427) 
too moved

>  <fragmenstein_mode>  (427) 
expansion

>  <fragmenstein_error>  (427) 


$$$$
C55935-P103
     RDKit          3D

 34 36  0  0  0  0  0  0  0  0999 V2000
  -10.0642    1.2690   28.0910 C   0  0  0  0  0  0  0  0  0  0  0  0
   -8.8910    2.0575   27.7855 N   0  0  0  0  0  0  0  0  0  0  0  0
   -8.1466    2.0024   26.6401 C   0  0  0  0  0  0  0  0  0  0  0  0
   -7.0451    2.8445   26.7948 C   0  0  0  0  0  0  0  0  0  0  0  0
   -5.9360    3.0202   25.7822 C   0  0  0  0  0  0  0  0  0  0  0  0
   -6.2880    3.1922   24.6113 O   0  0  0  0  0  0  0  0  0  0  0  0
   -4.3322    3.0504   26.1409 C   0  0  0  0  0  0  0  0  0  0  0  0
   -3.0850    3.1631   25.2567 N   0  0  0  0  0  0  0  0  0  0  0  0
   -1.6622    3.1559   25.6025 C   0  0  0  0  0  0  0  0  0  0  0  0
   -1.1183    2.9805   26.6558 O   0  0  0  0  0  0  0  0  0  0  0  0
   -0.6128    3.3571   24.4546 C   0  0  0  0  0  0  0  0  0  0  0  0
    0.7701    3.4043   24.7081 C   0  0  0  0  0  0  0  0  0  0  0  0
    1.4414    3.4511   23.5093 N   0  0  0  0  0  0  0  0  0  0  0  0
    2.8138    3.3291   23.2355 C   0  0  0  0  0  0  0  0  0  0  0  0
    3.2369    3.2854   21.9588 C   0  0  0  0  0  0  0  0  0  0  0  0
    2.2512    3.4277   20.8988 C   0  0  0  0  0  0  0  0  0  0  0  0
    0.9343    3.5678   21.1719 C   0  0  0  0  0  0  0  0  0  0  0  0
    0.4548    3.5223   22.5278 C   0  0  0  0  0  0  0  0  0  0  0  0
   -0.7704    3.4114   23.0603 N   0  0  0  0  0  0  0  0  0  0  0  0
   -7.3885    3.5054   28.0031 C   0  0  0  0  0  0  0  0  0  0  0  0
   -8.4349    2.9748   28.6524 N   0  0  0  0  0  0  0  0  0  0  0  0
   -9.7267    0.2895   28.4303 H   0  0  0  0  0  0  0  0  0  0  0  0
  -10.6610    1.7887   28.8409 H   0  0  0  0  0  0  0  0  0  0  0  0
  -10.6525    1.1615   27.1756 H   0  0  0  0  0  0  0  0  0  0  0  0
   -8.4139    1.3407   25.8268 H   0  0  0  0  0  0  0  0  0  0  0  0
   -4.1412    2.1544   26.7345 H   0  0  0  0  0  0  0  0  0  0  0  0
   -4.1872    3.8959   26.8105 H   0  0  0  0  0  0  0  0  0  0  0  0
   -3.1886    3.4285   24.2787 H   0  0  0  0  0  0  0  0  0  0  0  0
    1.3045    3.3516   25.6471 H   0  0  0  0  0  0  0  0  0  0  0  0
    3.4798    3.2291   24.0838 H   0  0  0  0  0  0  0  0  0  0  0  0
    4.2836    3.1602   21.7057 H   0  0  0  0  0  0  0  0  0  0  0  0
    2.6070    3.4450   19.8732 H   0  0  0  0  0  0  0  0  0  0  0  0
    0.2044    3.6898   20.3792 H   0  0  0  0  0  0  0  0  0  0  0  0
   -6.9132    4.3533   28.4670 H   0  0  0  0  0  0  0  0  0  0  0  0
  1  2  1  0
  2  3  1  0
  3  4  2  0
  4  5  1  0
  5  6  2  0
  5  7  1  0
  7  8  1  0
  8  9  1  0
  9 10  2  0
  9 11  1  0
 11 12  2  0
 12 13  1  0
 13 14  1  0
 14 15  2  0
 15 16  1  0
 16 17  2  0
 17 18  1  0
 18 19  2  0
  4 20  1  0
 20 21  2  0
 21  2  1  0
 19 11  1  0
 18 13  1  0
  1 22  1  0
  1 23  1  0
  1 24  1  0
  3 25  1  0
  7 26  1  0
  7 27  1  0
  8 28  1  0
 12 29  1  0
 14 30  1  0
 15 31  1  0
 16 32  1  0
 17 33  1  0
 20 34  1  0
M  END
>  <Energy>  (428) 
111.18417415077911

>  <compound_id>  (428) 
55935

>  <target_id>  (428) 
1

>  <reference_id>  (428) 
103

>  <inspiration_ids>  (428) 
[7, 103]

>  <energy_score>  (428) 
12.757348178698123

>  <distance_score>  (428) 
13.66949336481364

>  <path>  (428) 
/opt/xchem-fragalysis-2/maxwin/BulkDock/SCRATCH/511024/C55935-P103/C55935-P103.minimised.mol

>  <scratch_subdir>  (428) 
/opt/xchem-fragalysis-2/maxwin/BulkDock/SCRATCH/511024/C55935-P103

>  <fragmenstein_runtime>  (428) 
8.78635048866272

>  <fragmenstein_outcome>  (428) 
too moved

>  <fragmenstein_mode>  (428) 
expansion

>  <fragmenstein_error>  (428) 


$$$$
C55937-P7
     RDKit          3D

 39 42  0  0  0  0  0  0  0  0999 V2000
    1.8937    0.0276   27.7417 O   0  0  0  0  0  0  0  0  0  0  0  0
    1.7342   -1.1403   27.9683 C   0  0  0  0  0  0  0  0  0  0  0  0
    0.6972   -1.8368   28.8002 N   0  0  0  0  0  0  0  0  0  0  0  0
   -0.4296   -1.3237   29.4974 C   0  0  0  0  0  0  0  0  0  0  0  0
   -0.7663    0.0247   29.5605 C   0  0  0  0  0  0  0  0  0  0  0  0
   -1.9570    0.1339   30.2887 C   0  0  0  0  0  0  0  0  0  0  0  0
   -2.4020   -1.0506   30.6787 N   0  0  0  0  0  0  0  0  0  0  0  0
   -1.4452   -1.9327   30.2773 N   0  0  0  0  0  0  0  0  0  0  0  0
   -1.6346   -3.3017   30.7676 C   0  0  0  0  0  0  0  0  0  0  0  0
   -3.1157   -3.7888   30.7685 C   0  0  0  0  0  0  0  0  0  0  0  0
   -3.6568   -3.6954   32.2019 C   0  0  0  0  0  0  0  0  0  0  0  0
   -2.5108   -3.1728   33.0510 C   0  0  0  0  0  0  0  0  0  0  0  0
   -1.2389   -3.4636   32.2430 C   0  0  0  0  0  0  0  0  0  0  0  0
    2.7530   -2.0357   27.2835 C   0  0  0  0  0  0  0  0  0  0  0  0
    2.9176   -3.4149   27.3002 C   0  0  0  0  0  0  0  0  0  0  0  0
    3.9065   -3.8771   26.4621 N   0  0  0  0  0  0  0  0  0  0  0  0
    4.4175   -2.8073   25.9017 C   0  0  0  0  0  0  0  0  0  0  0  0
    5.4809   -2.6946   24.9497 C   0  0  0  0  0  0  0  0  0  0  0  0
    5.9423   -1.4828   24.5959 C   0  0  0  0  0  0  0  0  0  0  0  0
    5.3542   -0.2803   25.1575 C   0  0  0  0  0  0  0  0  0  0  0  0
    4.3137   -0.3776   26.0119 C   0  0  0  0  0  0  0  0  0  0  0  0
    3.8152   -1.6364   26.3951 N   0  0  0  0  0  0  0  0  0  0  0  0
    0.8111   -2.8354   28.7050 H   0  0  0  0  0  0  0  0  0  0  0  0
   -0.2088    0.8358   29.1110 H   0  0  0  0  0  0  0  0  0  0  0  0
   -2.5228    1.0239   30.5332 H   0  0  0  0  0  0  0  0  0  0  0  0
   -1.0195   -3.9342   30.1181 H   0  0  0  0  0  0  0  0  0  0  0  0
   -3.7536   -3.2307   30.0754 H   0  0  0  0  0  0  0  0  0  0  0  0
   -3.1444   -4.8400   30.4555 H   0  0  0  0  0  0  0  0  0  0  0  0
   -4.5275   -3.0345   32.2626 H   0  0  0  0  0  0  0  0  0  0  0  0
   -3.9722   -4.6867   32.5464 H   0  0  0  0  0  0  0  0  0  0  0  0
   -2.4818   -3.6439   34.0384 H   0  0  0  0  0  0  0  0  0  0  0  0
   -2.6182   -2.0937   33.2076 H   0  0  0  0  0  0  0  0  0  0  0  0
   -0.4112   -2.8134   32.5438 H   0  0  0  0  0  0  0  0  0  0  0  0
   -0.9347   -4.5022   32.4232 H   0  0  0  0  0  0  0  0  0  0  0  0
    2.3419   -4.1332   27.8673 H   0  0  0  0  0  0  0  0  0  0  0  0
    5.9029   -3.6053   24.5433 H   0  0  0  0  0  0  0  0  0  0  0  0
    6.7470   -1.3733   23.8781 H   0  0  0  0  0  0  0  0  0  0  0  0
    5.7333    0.6847   24.8400 H   0  0  0  0  0  0  0  0  0  0  0  0
    3.8285    0.4961   26.4250 H   0  0  0  0  0  0  0  0  0  0  0  0
  1  2  2  0
  2  3  1  0
  3  4  1  0
  4  5  2  0
  5  6  1  0
  6  7  2  0
  7  8  1  0
  8  9  1  0
  9 10  1  0
 10 11  1  0
 11 12  1  0
 12 13  1  0
  2 14  1  0
 14 15  2  0
 15 16  1  0
 16 17  2  0
 17 18  1  0
 18 19  2  0
 19 20  1  0
 20 21  2  0
 21 22  1  0
  8  4  1  0
 13  9  1  0
 22 14  1  0
 22 17  1  0
  3 23  1  0
  5 24  1  0
  6 25  1  0
  9 26  1  0
 10 27  1  0
 10 28  1  0
 11 29  1  0
 11 30  1  0
 12 31  1  0
 12 32  1  0
 13 33  1  0
 13 34  1  0
 15 35  1  0
 18 36  1  0
 19 37  1  0
 20 38  1  0
 21 39  1  0
M  END
>  <Energy>  (429) 
50.613054408917591

>  <compound_id>  (429) 
55937

>  <target_id>  (429) 
1

>  <reference_id>  (429) 
7

>  <inspiration_ids>  (429) 
[7, 103]

>  <energy_score>  (429) 
-27.644122312766214

>  <distance_score>  (429) 
13.41936576139101

>  <path>  (429) 
/opt/xchem-fragalysis-2/maxwin/BulkDock/SCRATCH/511024/C55937-P7/C55937-P7.minimised.mol

>  <scratch_subdir>  (429) 
/opt/xchem-fragalysis-2/maxwin/BulkDock/SCRATCH/511024/C55937-P7

>  <fragmenstein_runtime>  (429) 
11.330273151397705

>  <fragmenstein_outcome>  (429) 
too moved

>  <fragmenstein_mode>  (429) 
expansion

>  <fragmenstein_error>  (429) 


$$$$
C55937-P103
     RDKit          3D

 39 42  0  0  0  0  0  0  0  0999 V2000
    2.2720   -0.4902   27.4536 O   0  0  0  0  0  0  0  0  0  0  0  0
    2.1615   -1.6725   27.6300 C   0  0  0  0  0  0  0  0  0  0  0  0
    1.1370   -2.4477   28.4006 N   0  0  0  0  0  0  0  0  0  0  0  0
   -0.0411   -2.0207   29.0594 C   0  0  0  0  0  0  0  0  0  0  0  0
   -0.5530   -0.7283   29.0290 C   0  0  0  0  0  0  0  0  0  0  0  0
   -1.8198   -0.7688   29.6268 C   0  0  0  0  0  0  0  0  0  0  0  0
   -2.1533   -2.0024   29.9853 N   0  0  0  0  0  0  0  0  0  0  0  0
   -0.9913   -2.7045   29.8581 N   0  0  0  0  0  0  0  0  0  0  0  0
   -0.8650   -3.8718   30.7347 C   0  0  0  0  0  0  0  0  0  0  0  0
   -1.3401   -3.6130   32.1912 C   0  0  0  0  0  0  0  0  0  0  0  0
   -2.8197   -4.0192   32.2755 C   0  0  0  0  0  0  0  0  0  0  0  0
   -3.1017   -4.8437   31.0235 C   0  0  0  0  0  0  0  0  0  0  0  0
   -1.7370   -5.0735   30.3534 C   0  0  0  0  0  0  0  0  0  0  0  0
    3.2008   -2.5054   26.8962 C   0  0  0  0  0  0  0  0  0  0  0  0
    3.3863   -3.8809   26.8280 C   0  0  0  0  0  0  0  0  0  0  0  0
    4.3655   -4.2760   25.9469 N   0  0  0  0  0  0  0  0  0  0  0  0
    4.8437   -3.1666   25.4381 C   0  0  0  0  0  0  0  0  0  0  0  0
    5.8804   -2.9818   24.4685 C   0  0  0  0  0  0  0  0  0  0  0  0
    6.2911   -1.7423   24.1506 C   0  0  0  0  0  0  0  0  0  0  0  0
    5.6779   -0.5836   24.7730 C   0  0  0  0  0  0  0  0  0  0  0  0
    4.6715   -0.7493   25.6569 C   0  0  0  0  0  0  0  0  0  0  0  0
    4.2251   -2.0368   26.0023 N   0  0  0  0  0  0  0  0  0  0  0  0
    1.3952   -3.4229   28.4075 H   0  0  0  0  0  0  0  0  0  0  0  0
   -0.0760    0.1297   28.5742 H   0  0  0  0  0  0  0  0  0  0  0  0
   -2.5190    0.0405   29.7794 H   0  0  0  0  0  0  0  0  0  0  0  0
    0.1979   -4.1382   30.7201 H   0  0  0  0  0  0  0  0  0  0  0  0
   -0.7651   -4.2603   32.8660 H   0  0  0  0  0  0  0  0  0  0  0  0
   -1.1797   -2.5816   32.5225 H   0  0  0  0  0  0  0  0  0  0  0  0
   -3.4695   -3.1381   32.3091 H   0  0  0  0  0  0  0  0  0  0  0  0
   -3.0078   -4.5977   33.1862 H   0  0  0  0  0  0  0  0  0  0  0  0
   -3.5956   -5.7914   31.2604 H   0  0  0  0  0  0  0  0  0  0  0  0
   -3.7668   -4.2895   30.3523 H   0  0  0  0  0  0  0  0  0  0  0  0
   -1.8158   -5.2334   29.2767 H   0  0  0  0  0  0  0  0  0  0  0  0
   -1.2928   -5.9825   30.7800 H   0  0  0  0  0  0  0  0  0  0  0  0
    2.8290   -4.6414   27.3571 H   0  0  0  0  0  0  0  0  0  0  0  0
    6.3244   -3.8618   24.0197 H   0  0  0  0  0  0  0  0  0  0  0  0
    7.0777   -1.5784   23.4233 H   0  0  0  0  0  0  0  0  0  0  0  0
    6.0111    0.4067   24.4828 H   0  0  0  0  0  0  0  0  0  0  0  0
    4.1672    0.0906   26.1154 H   0  0  0  0  0  0  0  0  0  0  0  0
  1  2  2  0
  2  3  1  0
  3  4  1  0
  4  5  2  0
  5  6  1  0
  6  7  2  0
  7  8  1  0
  8  9  1  0
  9 10  1  0
 10 11  1  0
 11 12  1  0
 12 13  1  0
  2 14  1  0
 14 15  2  0
 15 16  1  0
 16 17  2  0
 17 18  1  0
 18 19  2  0
 19 20  1  0
 20 21  2  0
 21 22  1  0
  8  4  1  0
 13  9  1  0
 22 14  1  0
 22 17  1  0
  3 23  1  0
  5 24  1  0
  6 25  1  0
  9 26  1  0
 10 27  1  0
 10 28  1  0
 11 29  1  0
 11 30  1  0
 12 31  1  0
 12 32  1  0
 13 33  1  0
 13 34  1  0
 15 35  1  0
 18 36  1  0
 19 37  1  0
 20 38  1  0
 21 39  1  0
M  END
>  <Energy>  (430) 
52.970316578414085

>  <compound_id>  (430) 
55937

>  <target_id>  (430) 
1

>  <reference_id>  (430) 
103

>  <inspiration_ids>  (430) 
[7, 103]

>  <energy_score>  (430) 
-25.286860143270424

>  <distance_score>  (430) 
13.43135310987572

>  <path>  (430) 
/opt/xchem-fragalysis-2/maxwin/BulkDock/SCRATCH/511024/C55937-P103/C55937-P103.minimised.mol

>  <scratch_subdir>  (430) 
/opt/xchem-fragalysis-2/maxwin/BulkDock/SCRATCH/511024/C55937-P103

>  <fragmenstein_runtime>  (430) 
12.709661483764648

>  <fragmenstein_outcome>  (430) 
too moved

>  <fragmenstein_mode>  (430) 
expansion

>  <fragmenstein_error>  (430) 


$$$$
C55938-P7
     RDKit          3D

 41 44  0  0  0  0  0  0  0  0999 V2000
    1.5276   -2.7933   29.0792 O   0  0  0  0  0  0  0  0  0  0  0  0
    1.1220   -1.7798   28.5217 C   0  0  0  0  0  0  0  0  0  0  0  0
    1.8082   -1.1673   27.4542 O   0  0  0  0  0  0  0  0  0  0  0  0
    3.1361   -1.7530   27.1323 C   0  0  0  0  0  0  0  0  0  0  0  0
    3.8718   -1.4996   25.7640 C   0  0  0  0  0  0  0  0  0  0  0  0
    4.4491   -2.4852   24.9617 C   0  0  0  0  0  0  0  0  0  0  0  0
    5.1735   -1.8584   23.9756 N   0  0  0  0  0  0  0  0  0  0  0  0
    5.9547   -2.4058   22.9501 C   0  0  0  0  0  0  0  0  0  0  0  0
    6.5901   -1.5879   22.0931 C   0  0  0  0  0  0  0  0  0  0  0  0
    6.4374   -0.1518   22.2606 C   0  0  0  0  0  0  0  0  0  0  0  0
    5.6899    0.3665   23.2594 C   0  0  0  0  0  0  0  0  0  0  0  0
    5.0179   -0.4946   24.1865 C   0  0  0  0  0  0  0  0  0  0  0  0
    4.2692   -0.2554   25.2596 N   0  0  0  0  0  0  0  0  0  0  0  0
   -0.1129   -1.0705   28.9384 C   0  0  0  0  0  0  0  0  0  0  0  0
   -0.6063    0.1219   28.4221 C   0  0  0  0  0  0  0  0  0  0  0  0
   -1.7535    0.4493   29.1500 C   0  0  0  0  0  0  0  0  0  0  0  0
   -2.0332   -0.4558   30.0768 N   0  0  0  0  0  0  0  0  0  0  0  0
   -1.0473   -1.3888   29.9567 N   0  0  0  0  0  0  0  0  0  0  0  0
   -1.1175   -2.4999   30.9217 C   0  0  0  0  0  0  0  0  0  0  0  0
   -2.4213   -3.3427   30.8223 C   0  0  0  0  0  0  0  0  0  0  0  0
   -3.1233   -3.2967   32.1840 C   0  0  0  0  0  0  0  0  0  0  0  0
   -2.5753   -2.0526   32.8522 C   0  0  0  0  0  0  0  0  0  0  0  0
   -1.1120   -2.0159   32.3891 C   0  0  0  0  0  0  0  0  0  0  0  0
    3.8184   -1.3940   27.9126 H   0  0  0  0  0  0  0  0  0  0  0  0
    3.0522   -2.8427   27.2307 H   0  0  0  0  0  0  0  0  0  0  0  0
    4.4181   -3.5619   25.0372 H   0  0  0  0  0  0  0  0  0  0  0  0
    6.0091   -3.4853   22.8965 H   0  0  0  0  0  0  0  0  0  0  0  0
    7.2020   -1.9698   21.2879 H   0  0  0  0  0  0  0  0  0  0  0  0
    6.9408    0.5062   21.5614 H   0  0  0  0  0  0  0  0  0  0  0  0
    5.5769    1.4367   23.3908 H   0  0  0  0  0  0  0  0  0  0  0  0
   -0.1574    0.6989   27.6243 H   0  0  0  0  0  0  0  0  0  0  0  0
   -2.3879    1.3169   29.0325 H   0  0  0  0  0  0  0  0  0  0  0  0
   -0.2441   -3.1296   30.7346 H   0  0  0  0  0  0  0  0  0  0  0  0
   -2.1860   -4.3803   30.5592 H   0  0  0  0  0  0  0  0  0  0  0  0
   -3.0878   -2.9662   30.0461 H   0  0  0  0  0  0  0  0  0  0  0  0
   -2.8531   -4.1851   32.7670 H   0  0  0  0  0  0  0  0  0  0  0  0
   -4.2127   -3.2754   32.0880 H   0  0  0  0  0  0  0  0  0  0  0  0
   -2.6594   -2.0949   33.9420 H   0  0  0  0  0  0  0  0  0  0  0  0
   -3.1113   -1.1628   32.5044 H   0  0  0  0  0  0  0  0  0  0  0  0
   -0.6665   -1.0248   32.5228 H   0  0  0  0  0  0  0  0  0  0  0  0
   -0.5329   -2.7240   32.9955 H   0  0  0  0  0  0  0  0  0  0  0  0
  1  2  2  0
  2  3  1  0
  3  4  1  0
  4  5  1  0
  5  6  2  0
  6  7  1  0
  7  8  1  0
  8  9  2  0
  9 10  1  0
 10 11  2  0
 11 12  1  0
 12 13  2  0
  2 14  1  0
 14 15  2  0
 15 16  1  0
 16 17  2  0
 17 18  1  0
 18 19  1  0
 19 20  1  0
 20 21  1  0
 21 22  1  0
 22 23  1  0
 13  5  1  0
 18 14  1  0
 23 19  1  0
 12  7  1  0
  4 24  1  0
  4 25  1  0
  6 26  1  0
  8 27  1  0
  9 28  1  0
 10 29  1  0
 11 30  1  0
 15 31  1  0
 16 32  1  0
 19 33  1  0
 20 34  1  0
 20 35  1  0
 21 36  1  0
 21 37  1  0
 22 38  1  0
 22 39  1  0
 23 40  1  0
 23 41  1  0
M  END
>  <Energy>  (431) 
38.198806521780455

>  <compound_id>  (431) 
55938

>  <target_id>  (431) 
1

>  <reference_id>  (431) 
7

>  <inspiration_ids>  (431) 
[7, 103]

>  <energy_score>  (431) 
-32.59564997300777

>  <distance_score>  (431) 
12.75672924463761

>  <path>  (431) 
/opt/xchem-fragalysis-2/maxwin/BulkDock/SCRATCH/511024/C55938-P7/C55938-P7.minimised.mol

>  <scratch_subdir>  (431) 
/opt/xchem-fragalysis-2/maxwin/BulkDock/SCRATCH/511024/C55938-P7

>  <fragmenstein_runtime>  (431) 
10.428263902664185

>  <fragmenstein_outcome>  (431) 
too moved

>  <fragmenstein_mode>  (431) 
expansion

>  <fragmenstein_error>  (431) 


$$$$
C55938-P103
     RDKit          3D

 41 44  0  0  0  0  0  0  0  0999 V2000
    4.3835   -2.3957   25.0556 O   0  0  0  0  0  0  0  0  0  0  0  0
    4.0628   -1.2337   24.8259 C   0  0  0  0  0  0  0  0  0  0  0  0
    4.5109   -0.5642   23.6174 O   0  0  0  0  0  0  0  0  0  0  0  0
    5.4704   -1.3382   22.6998 C   0  0  0  0  0  0  0  0  0  0  0  0
    5.8550   -0.8996   21.1482 C   0  0  0  0  0  0  0  0  0  0  0  0
    7.0888   -0.5384   20.5462 C   0  0  0  0  0  0  0  0  0  0  0  0
    6.9761   -0.5731   19.1181 N   0  0  0  0  0  0  0  0  0  0  0  0
    7.9012   -0.1615   17.7458 C   0  0  0  0  0  0  0  0  0  0  0  0
    7.3641   -0.5075   16.4927 C   0  0  0  0  0  0  0  0  0  0  0  0
    5.8390   -0.8424   16.4378 C   0  0  0  0  0  0  0  0  0  0  0  0
    5.0292   -1.0016   17.5659 C   0  0  0  0  0  0  0  0  0  0  0  0
    5.5728   -0.9793   18.9426 C   0  0  0  0  0  0  0  0  0  0  0  0
    4.9647   -1.1599   20.1094 N   0  0  0  0  0  0  0  0  0  0  0  0
    3.2835   -0.3804   25.8137 C   0  0  0  0  0  0  0  0  0  0  0  0
    3.1816    1.0122   25.7920 C   0  0  0  0  0  0  0  0  0  0  0  0
    2.4189    1.4173   26.8994 C   0  0  0  0  0  0  0  0  0  0  0  0
    2.0129    0.3904   27.6266 N   0  0  0  0  0  0  0  0  0  0  0  0
    2.4972   -0.7157   26.9803 N   0  0  0  0  0  0  0  0  0  0  0  0
    2.0777   -1.9816   27.6182 C   0  0  0  0  0  0  0  0  0  0  0  0
    0.5547   -2.0349   28.0171 C   0  0  0  0  0  0  0  0  0  0  0  0
    0.4644   -1.9022   29.5336 C   0  0  0  0  0  0  0  0  0  0  0  0
    1.6980   -2.6532   29.9830 C   0  0  0  0  0  0  0  0  0  0  0  0
    2.7875   -2.2327   28.9735 C   0  0  0  0  0  0  0  0  0  0  0  0
    6.4223   -1.3757   23.2421 H   0  0  0  0  0  0  0  0  0  0  0  0
    5.0644   -2.3530   22.6114 H   0  0  0  0  0  0  0  0  0  0  0  0
    8.0288   -0.3463   21.0236 H   0  0  0  0  0  0  0  0  0  0  0  0
    8.8494    0.3387   17.7284 H   0  0  0  0  0  0  0  0  0  0  0  0
    7.9086   -0.3795   15.5619 H   0  0  0  0  0  0  0  0  0  0  0  0
    5.4027   -0.9623   15.4498 H   0  0  0  0  0  0  0  0  0  0  0  0
    3.9718   -1.2186   17.4586 H   0  0  0  0  0  0  0  0  0  0  0  0
    3.6326    1.6569   25.0496 H   0  0  0  0  0  0  0  0  0  0  0  0
    2.1470    2.4213   27.1995 H   0  0  0  0  0  0  0  0  0  0  0  0
    2.3243   -2.7770   26.9111 H   0  0  0  0  0  0  0  0  0  0  0  0
   -0.0584   -1.2752   27.5274 H   0  0  0  0  0  0  0  0  0  0  0  0
    0.1637   -3.0236   27.7566 H   0  0  0  0  0  0  0  0  0  0  0  0
   -0.4589   -2.3279   29.9361 H   0  0  0  0  0  0  0  0  0  0  0  0
    0.5232   -0.8499   29.8323 H   0  0  0  0  0  0  0  0  0  0  0  0
    1.5319   -3.7351   29.9160 H   0  0  0  0  0  0  0  0  0  0  0  0
    1.9826   -2.4155   31.0120 H   0  0  0  0  0  0  0  0  0  0  0  0
    3.2931   -1.3301   29.3370 H   0  0  0  0  0  0  0  0  0  0  0  0
    3.5506   -3.0130   28.8808 H   0  0  0  0  0  0  0  0  0  0  0  0
  1  2  2  0
  2  3  1  0
  3  4  1  0
  4  5  1  0
  5  6  2  0
  6  7  1  0
  7  8  1  0
  8  9  2  0
  9 10  1  0
 10 11  2  0
 11 12  1  0
 12 13  2  0
  2 14  1  0
 14 15  2  0
 15 16  1  0
 16 17  2  0
 17 18  1  0
 18 19  1  0
 19 20  1  0
 20 21  1  0
 21 22  1  0
 22 23  1  0
 13  5  1  0
 18 14  1  0
 23 19  1  0
 12  7  1  0
  4 24  1  0
  4 25  1  0
  6 26  1  0
  8 27  1  0
  9 28  1  0
 10 29  1  0
 11 30  1  0
 15 31  1  0
 16 32  1  0
 19 33  1  0
 20 34  1  0
 20 35  1  0
 21 36  1  0
 21 37  1  0
 22 38  1  0
 22 39  1  0
 23 40  1  0
 23 41  1  0
M  END
>  <Energy>  (432) 
110.84738773359027

>  <compound_id>  (432) 
55938

>  <target_id>  (432) 
1

>  <reference_id>  (432) 
103

>  <inspiration_ids>  (432) 
[7, 103]

>  <energy_score>  (432) 
40.052931238802955

>  <distance_score>  (432) 
13.562165946199901

>  <path>  (432) 
/opt/xchem-fragalysis-2/maxwin/BulkDock/SCRATCH/511024/C55938-P103/C55938-P103.minimised.mol

>  <scratch_subdir>  (432) 
/opt/xchem-fragalysis-2/maxwin/BulkDock/SCRATCH/511024/C55938-P103

>  <fragmenstein_runtime>  (432) 
7.116714715957642

>  <fragmenstein_outcome>  (432) 
too moved

>  <fragmenstein_mode>  (432) 
expansion

>  <fragmenstein_error>  (432) 


$$$$
C55941-P7
     RDKit          3D

 39 42  0  0  0  0  0  0  0  0999 V2000
   -2.8189   -4.9663   23.2952 O   0  0  0  0  0  0  0  0  0  0  0  0
   -2.8349   -3.8066   22.9868 C   0  0  0  0  0  0  0  0  0  0  0  0
   -1.9549   -3.0422   22.0773 N   0  0  0  0  0  0  0  0  0  0  0  0
   -0.7861   -3.4300   21.3811 C   0  0  0  0  0  0  0  0  0  0  0  0
   -0.1271   -4.6487   21.5049 C   0  0  0  0  0  0  0  0  0  0  0  0
    1.0584   -4.7014   20.8058 N   0  0  0  0  0  0  0  0  0  0  0  0
    1.1562   -3.5461   20.1964 C   0  0  0  0  0  0  0  0  0  0  0  0
    2.1803   -3.0569   19.3258 C   0  0  0  0  0  0  0  0  0  0  0  0
    2.0570   -1.8411   18.7643 C   0  0  0  0  0  0  0  0  0  0  0  0
    0.8848   -1.0207   19.0264 C   0  0  0  0  0  0  0  0  0  0  0  0
   -0.0814   -1.4718   19.8551 C   0  0  0  0  0  0  0  0  0  0  0  0
    0.0418   -2.7270   20.4687 N   0  0  0  0  0  0  0  0  0  0  0  0
   -3.8872   -3.0146   23.7639 C   0  0  0  0  0  0  0  0  0  0  0  0
   -4.2653   -1.6500   23.8185 C   0  0  0  0  0  0  0  0  0  0  0  0
   -5.1870   -1.3666   24.7511 N   0  0  0  0  0  0  0  0  0  0  0  0
   -5.4880   -2.5591   25.3075 N   0  0  0  0  0  0  0  0  0  0  0  0
   -6.5693   -2.6209   26.2834 C   0  0  0  0  0  0  0  0  0  0  0  0
   -7.4708   -3.8661   26.2525 C   0  0  0  0  0  0  0  0  0  0  0  0
   -7.9867   -4.0477   27.6911 C   0  0  0  0  0  0  0  0  0  0  0  0
   -7.4311   -2.8731   28.4845 C   0  0  0  0  0  0  0  0  0  0  0  0
   -6.1476   -2.5132   27.7504 C   0  0  0  0  0  0  0  0  0  0  0  0
   -4.7103   -3.5572   24.7738 C   0  0  0  0  0  0  0  0  0  0  0  0
   -2.3088   -2.1007   21.9880 H   0  0  0  0  0  0  0  0  0  0  0  0
   -0.4377   -5.4922   22.1098 H   0  0  0  0  0  0  0  0  0  0  0  0
    3.0380   -3.6916   19.1341 H   0  0  0  0  0  0  0  0  0  0  0  0
    2.8198   -1.4556   18.0936 H   0  0  0  0  0  0  0  0  0  0  0  0
    0.8068   -0.0581   18.5302 H   0  0  0  0  0  0  0  0  0  0  0  0
   -0.9777   -0.9055   20.0703 H   0  0  0  0  0  0  0  0  0  0  0  0
   -3.8825   -0.8264   23.2307 H   0  0  0  0  0  0  0  0  0  0  0  0
   -7.2139   -1.7584   26.0545 H   0  0  0  0  0  0  0  0  0  0  0  0
   -8.3006   -3.7250   25.5509 H   0  0  0  0  0  0  0  0  0  0  0  0
   -6.9386   -4.7704   25.9403 H   0  0  0  0  0  0  0  0  0  0  0  0
   -9.0789   -4.0931   27.7363 H   0  0  0  0  0  0  0  0  0  0  0  0
   -7.5924   -4.9910   28.0836 H   0  0  0  0  0  0  0  0  0  0  0  0
   -8.1324   -2.0325   28.4351 H   0  0  0  0  0  0  0  0  0  0  0  0
   -7.2472   -3.1105   29.5314 H   0  0  0  0  0  0  0  0  0  0  0  0
   -5.3497   -3.2284   27.9846 H   0  0  0  0  0  0  0  0  0  0  0  0
   -5.7929   -1.5104   28.0077 H   0  0  0  0  0  0  0  0  0  0  0  0
   -4.7846   -4.5769   25.1270 H   0  0  0  0  0  0  0  0  0  0  0  0
  1  2  2  0
  2  3  1  0
  3  4  1  0
  4  5  2  0
  5  6  1  0
  6  7  2  0
  7  8  1  0
  8  9  2  0
  9 10  1  0
 10 11  2  0
 11 12  1  0
  2 13  1  0
 13 14  1  0
 14 15  2  0
 15 16  1  0
 16 17  1  0
 17 18  1  0
 18 19  1  0
 19 20  1  0
 20 21  1  0
 16 22  1  0
 12  4  1  0
 22 13  2  0
 12  7  1  0
 21 17  1  0
  3 23  1  0
  5 24  1  0
  8 25  1  0
  9 26  1  0
 10 27  1  0
 11 28  1  0
 14 29  1  0
 17 30  1  0
 18 31  1  0
 18 32  1  0
 19 33  1  0
 19 34  1  0
 20 35  1  0
 20 36  1  0
 21 37  1  0
 21 38  1  0
 22 39  1  0
M  END
>  <Energy>  (433) 
78.832074616846029

>  <compound_id>  (433) 
55941

>  <target_id>  (433) 
1

>  <reference_id>  (433) 
7

>  <inspiration_ids>  (433) 
[7, 103]

>  <energy_score>  (433) 
-28.783680168670145

>  <distance_score>  (433) 
13.665520041333403

>  <path>  (433) 
/opt/xchem-fragalysis-2/maxwin/BulkDock/SCRATCH/511024/C55941-P7/C55941-P7.minimised.mol

>  <scratch_subdir>  (433) 
/opt/xchem-fragalysis-2/maxwin/BulkDock/SCRATCH/511024/C55941-P7

>  <fragmenstein_runtime>  (433) 
8.130851030349731

>  <fragmenstein_outcome>  (433) 
too moved

>  <fragmenstein_mode>  (433) 
expansion

>  <fragmenstein_error>  (433) 


$$$$
C55941-P103
     RDKit          3D

 39 42  0  0  0  0  0  0  0  0999 V2000
    0.7790    0.2041   27.9388 O   0  0  0  0  0  0  0  0  0  0  0  0
    0.7760   -0.9298   28.3298 C   0  0  0  0  0  0  0  0  0  0  0  0
    1.7161   -2.0227   28.0880 N   0  0  0  0  0  0  0  0  0  0  0  0
    2.8592   -2.1018   27.2481 C   0  0  0  0  0  0  0  0  0  0  0  0
    3.4899   -3.3210   26.9928 C   0  0  0  0  0  0  0  0  0  0  0  0
    4.5401   -3.2411   26.1174 N   0  0  0  0  0  0  0  0  0  0  0  0
    4.6200   -1.9698   25.8075 C   0  0  0  0  0  0  0  0  0  0  0  0
    5.5574   -1.3169   24.9493 C   0  0  0  0  0  0  0  0  0  0  0  0
    5.5505    0.0228   24.8523 C   0  0  0  0  0  0  0  0  0  0  0  0
    4.5796    0.8105   25.5943 C   0  0  0  0  0  0  0  0  0  0  0  0
    3.6643    0.1979   26.3749 C   0  0  0  0  0  0  0  0  0  0  0  0
    3.6492   -1.1963   26.4910 N   0  0  0  0  0  0  0  0  0  0  0  0
   -0.4129   -1.3517   29.2263 C   0  0  0  0  0  0  0  0  0  0  0  0
   -0.7395   -2.5846   29.8666 C   0  0  0  0  0  0  0  0  0  0  0  0
   -1.8930   -2.5843   30.5502 N   0  0  0  0  0  0  0  0  0  0  0  0
   -2.3512   -1.3261   30.4221 N   0  0  0  0  0  0  0  0  0  0  0  0
   -3.6144   -0.9315   31.0488 C   0  0  0  0  0  0  0  0  0  0  0  0
   -4.8617   -1.4936   30.3550 C   0  0  0  0  0  0  0  0  0  0  0  0
   -5.9568   -1.3569   31.4142 C   0  0  0  0  0  0  0  0  0  0  0  0
   -5.2629   -1.7908   32.6945 C   0  0  0  0  0  0  0  0  0  0  0  0
   -3.8067   -1.3301   32.5351 C   0  0  0  0  0  0  0  0  0  0  0  0
   -1.5055   -0.5640   29.6316 C   0  0  0  0  0  0  0  0  0  0  0  0
    1.3573   -2.8654   28.5080 H   0  0  0  0  0  0  0  0  0  0  0  0
    3.2056   -4.2837   27.3967 H   0  0  0  0  0  0  0  0  0  0  0  0
    6.2612   -1.9269   24.3982 H   0  0  0  0  0  0  0  0  0  0  0  0
    6.2450    0.5432   24.2034 H   0  0  0  0  0  0  0  0  0  0  0  0
    4.5963    1.8893   25.4875 H   0  0  0  0  0  0  0  0  0  0  0  0
    2.9212    0.7461   26.9363 H   0  0  0  0  0  0  0  0  0  0  0  0
   -0.1794   -3.5102   29.8585 H   0  0  0  0  0  0  0  0  0  0  0  0
   -3.6455    0.1651   30.9884 H   0  0  0  0  0  0  0  0  0  0  0  0
   -4.7269   -2.5487   30.0871 H   0  0  0  0  0  0  0  0  0  0  0  0
   -5.1058   -0.9437   29.4406 H   0  0  0  0  0  0  0  0  0  0  0  0
   -6.8374   -1.9598   31.1821 H   0  0  0  0  0  0  0  0  0  0  0  0
   -6.2722   -0.3097   31.4931 H   0  0  0  0  0  0  0  0  0  0  0  0
   -5.2873   -2.8826   32.7850 H   0  0  0  0  0  0  0  0  0  0  0  0
   -5.7360   -1.3702   33.5868 H   0  0  0  0  0  0  0  0  0  0  0  0
   -3.1223   -2.1206   32.8605 H   0  0  0  0  0  0  0  0  0  0  0  0
   -3.6119   -0.4605   33.1740 H   0  0  0  0  0  0  0  0  0  0  0  0
   -1.7367    0.4700   29.4137 H   0  0  0  0  0  0  0  0  0  0  0  0
  1  2  2  0
  2  3  1  0
  3  4  1  0
  4  5  2  0
  5  6  1  0
  6  7  2  0
  7  8  1  0
  8  9  2  0
  9 10  1  0
 10 11  2  0
 11 12  1  0
  2 13  1  0
 13 14  1  0
 14 15  2  0
 15 16  1  0
 16 17  1  0
 17 18  1  0
 18 19  1  0
 19 20  1  0
 20 21  1  0
 16 22  1  0
 12  4  1  0
 22 13  2  0
 12  7  1  0
 21 17  1  0
  3 23  1  0
  5 24  1  0
  8 25  1  0
  9 26  1  0
 10 27  1  0
 11 28  1  0
 14 29  1  0
 17 30  1  0
 18 31  1  0
 18 32  1  0
 19 33  1  0
 19 34  1  0
 20 35  1  0
 20 36  1  0
 21 37  1  0
 21 38  1  0
 22 39  1  0
M  END
>  <Energy>  (434) 
76.869064925017568

>  <compound_id>  (434) 
55941

>  <target_id>  (434) 
1

>  <reference_id>  (434) 
103

>  <inspiration_ids>  (434) 
[7, 103]

>  <energy_score>  (434) 
-30.74668986049852

>  <distance_score>  (434) 
12.893942382001942

>  <path>  (434) 
/opt/xchem-fragalysis-2/maxwin/BulkDock/SCRATCH/511024/C55941-P103/C55941-P103.minimised.mol

>  <scratch_subdir>  (434) 
/opt/xchem-fragalysis-2/maxwin/BulkDock/SCRATCH/511024/C55941-P103

>  <fragmenstein_runtime>  (434) 
8.154491424560547

>  <fragmenstein_outcome>  (434) 
too moved

>  <fragmenstein_mode>  (434) 
expansion

>  <fragmenstein_error>  (434) 


$$$$
C55942-P7
     RDKit          3D

 40 43  0  0  0  0  0  0  0  0999 V2000
    0.8982    0.4705   30.5338 O   0  0  0  0  0  0  0  0  0  0  0  0
    0.0347   -0.1337   29.5422 S   0  0  0  0  0  0  0  0  0  0  0  0
   -0.6062    0.6512   28.5081 O   0  0  0  0  0  0  0  0  0  0  0  0
   -1.2316   -0.9974   30.4217 N   0  0  0  0  0  0  0  0  0  0  0  0
   -2.1952   -0.1166   31.2676 C   0  0  0  0  0  0  0  0  0  0  0  0
   -2.0788    1.2514   31.4393 C   0  0  0  0  0  0  0  0  0  0  0  0
   -3.0628    1.6242   32.3667 C   0  0  0  0  0  0  0  0  0  0  0  0
   -3.7826    0.5874   32.7689 N   0  0  0  0  0  0  0  0  0  0  0  0
   -3.3175   -0.4553   32.0363 N   0  0  0  0  0  0  0  0  0  0  0  0
   -4.1186   -1.6769   32.0643 C   0  0  0  0  0  0  0  0  0  0  0  0
   -4.3694   -2.2435   33.4740 C   0  0  0  0  0  0  0  0  0  0  0  0
   -5.5829   -1.4918   34.0214 C   0  0  0  0  0  0  0  0  0  0  0  0
   -6.3821   -1.0509   32.8011 C   0  0  0  0  0  0  0  0  0  0  0  0
   -5.5498   -1.4258   31.5639 C   0  0  0  0  0  0  0  0  0  0  0  0
    1.1596   -1.1854   28.6311 C   0  0  0  0  0  0  0  0  0  0  0  0
    1.3235   -2.5587   28.5574 C   0  0  0  0  0  0  0  0  0  0  0  0
    2.3068   -2.9447   27.6829 N   0  0  0  0  0  0  0  0  0  0  0  0
    2.7514   -1.8266   27.1593 C   0  0  0  0  0  0  0  0  0  0  0  0
    3.6733   -1.6048   26.1007 C   0  0  0  0  0  0  0  0  0  0  0  0
    4.1371   -0.3669   25.8716 C   0  0  0  0  0  0  0  0  0  0  0  0
    3.6579    0.7636   26.6457 C   0  0  0  0  0  0  0  0  0  0  0  0
    2.6644    0.5792   27.5340 C   0  0  0  0  0  0  0  0  0  0  0  0
    2.1803   -0.7107   27.7828 N   0  0  0  0  0  0  0  0  0  0  0  0
   -0.7845   -1.6878   31.0300 H   0  0  0  0  0  0  0  0  0  0  0  0
   -1.3514    1.9143   30.9931 H   0  0  0  0  0  0  0  0  0  0  0  0
   -3.2697    2.6052   32.7744 H   0  0  0  0  0  0  0  0  0  0  0  0
   -3.5968   -2.4037   31.4327 H   0  0  0  0  0  0  0  0  0  0  0  0
   -3.5009   -2.1477   34.1336 H   0  0  0  0  0  0  0  0  0  0  0  0
   -4.6143   -3.3099   33.3955 H   0  0  0  0  0  0  0  0  0  0  0  0
   -5.2643   -0.6174   34.5999 H   0  0  0  0  0  0  0  0  0  0  0  0
   -6.1751   -2.1061   34.7002 H   0  0  0  0  0  0  0  0  0  0  0  0
   -6.5596    0.0299   32.8342 H   0  0  0  0  0  0  0  0  0  0  0  0
   -7.3605   -1.5270   32.7788 H   0  0  0  0  0  0  0  0  0  0  0  0
   -5.6108   -0.6529   30.7900 H   0  0  0  0  0  0  0  0  0  0  0  0
   -5.9476   -2.3468   31.1279 H   0  0  0  0  0  0  0  0  0  0  0  0
    0.7544   -3.3048   29.0962 H   0  0  0  0  0  0  0  0  0  0  0  0
    3.9005   -2.4332   25.4424 H   0  0  0  0  0  0  0  0  0  0  0  0
    4.7690   -0.1891   25.0123 H   0  0  0  0  0  0  0  0  0  0  0  0
    4.0381    1.7576   26.4581 H   0  0  0  0  0  0  0  0  0  0  0  0
    2.2274    1.3967   28.0939 H   0  0  0  0  0  0  0  0  0  0  0  0
  1  2  2  0
  2  3  2  0
  2  4  1  0
  4  5  1  0
  5  6  2  0
  6  7  1  0
  7  8  2  0
  8  9  1  0
  9 10  1  0
 10 11  1  0
 11 12  1  0
 12 13  1  0
 13 14  1  0
  2 15  1  0
 15 16  2  0
 16 17  1  0
 17 18  2  0
 18 19  1  0
 19 20  2  0
 20 21  1  0
 21 22  2  0
 22 23  1  0
  9  5  1  0
 14 10  1  0
 23 15  1  0
 23 18  1  0
  4 24  1  0
  6 25  1  0
  7 26  1  0
 10 27  1  0
 11 28  1  0
 11 29  1  0
 12 30  1  0
 12 31  1  0
 13 32  1  0
 13 33  1  0
 14 34  1  0
 14 35  1  0
 16 36  1  0
 19 37  1  0
 20 38  1  0
 21 39  1  0
 22 40  1  0
M  END
>  <Energy>  (435) 
-13.51470880321687

>  <compound_id>  (435) 
55942

>  <target_id>  (435) 
1

>  <reference_id>  (435) 
7

>  <inspiration_ids>  (435) 
[7, 103]

>  <energy_score>  (435) 
-55.411470464478754

>  <distance_score>  (435) 
13.030309139941142

>  <path>  (435) 
/opt/xchem-fragalysis-2/maxwin/BulkDock/SCRATCH/511024/C55942-P7/C55942-P7.minimised.mol

>  <scratch_subdir>  (435) 
/opt/xchem-fragalysis-2/maxwin/BulkDock/SCRATCH/511024/C55942-P7

>  <fragmenstein_runtime>  (435) 
9.23680305480957

>  <fragmenstein_outcome>  (435) 
too moved

>  <fragmenstein_mode>  (435) 
expansion

>  <fragmenstein_error>  (435) 


$$$$
C55942-P103
     RDKit          3D

 40 43  0  0  0  0  0  0  0  0999 V2000
    2.7445    1.6569   25.4852 O   0  0  0  0  0  0  0  0  0  0  0  0
    3.3766    0.5984   26.2416 S   0  0  0  0  0  0  0  0  0  0  0  0
    4.4396    0.8925   27.1803 O   0  0  0  0  0  0  0  0  0  0  0  0
    2.1065   -0.3559   27.1787 N   0  0  0  0  0  0  0  0  0  0  0  0
    0.9674    0.3306   27.9989 C   0  0  0  0  0  0  0  0  0  0  0  0
    0.8986    1.6872   28.2530 C   0  0  0  0  0  0  0  0  0  0  0  0
   -0.2816    1.9067   28.9881 C   0  0  0  0  0  0  0  0  0  0  0  0
   -0.9522    0.7845   29.2140 N   0  0  0  0  0  0  0  0  0  0  0  0
   -0.1695   -0.1911   28.6746 N   0  0  0  0  0  0  0  0  0  0  0  0
   -0.6155   -1.5656   28.9433 C   0  0  0  0  0  0  0  0  0  0  0  0
   -2.1377   -1.7983   28.7059 C   0  0  0  0  0  0  0  0  0  0  0  0
   -2.7989   -1.7855   30.0852 C   0  0  0  0  0  0  0  0  0  0  0  0
   -1.7656   -2.4736   30.9549 C   0  0  0  0  0  0  0  0  0  0  0  0
   -0.4102   -1.9695   30.4238 C   0  0  0  0  0  0  0  0  0  0  0  0
    4.1786   -0.4957   25.0355 C   0  0  0  0  0  0  0  0  0  0  0  0
    4.1814   -1.8484   25.1805 C   0  0  0  0  0  0  0  0  0  0  0  0
    4.8872   -2.4432   24.2043 N   0  0  0  0  0  0  0  0  0  0  0  0
    5.1107   -1.6210   23.2071 C   0  0  0  0  0  0  0  0  0  0  0  0
    5.6777   -1.6746   21.6745 C   0  0  0  0  0  0  0  0  0  0  0  0
    6.5775   -0.5487   20.9622 C   0  0  0  0  0  0  0  0  0  0  0  0
    6.2181    1.0044   21.8077 C   0  0  0  0  0  0  0  0  0  0  0  0
    4.8620    0.5874   22.4063 C   0  0  0  0  0  0  0  0  0  0  0  0
    4.8803   -0.3711   23.6942 N   0  0  0  0  0  0  0  0  0  0  0  0
    1.8107   -1.1790   26.6435 H   0  0  0  0  0  0  0  0  0  0  0  0
    1.6067    2.4395   27.9348 H   0  0  0  0  0  0  0  0  0  0  0  0
   -0.6767    2.8446   29.3570 H   0  0  0  0  0  0  0  0  0  0  0  0
   -0.0282   -2.2054   28.2755 H   0  0  0  0  0  0  0  0  0  0  0  0
   -2.2733   -2.7920   28.2600 H   0  0  0  0  0  0  0  0  0  0  0  0
   -2.5897   -1.0697   28.0253 H   0  0  0  0  0  0  0  0  0  0  0  0
   -2.9631   -0.7572   30.4248 H   0  0  0  0  0  0  0  0  0  0  0  0
   -3.7606   -2.3063   30.0878 H   0  0  0  0  0  0  0  0  0  0  0  0
   -1.8980   -2.2533   32.0180 H   0  0  0  0  0  0  0  0  0  0  0  0
   -1.8281   -3.5605   30.8237 H   0  0  0  0  0  0  0  0  0  0  0  0
   -0.0664   -1.1245   31.0323 H   0  0  0  0  0  0  0  0  0  0  0  0
    0.3478   -2.7555   30.5130 H   0  0  0  0  0  0  0  0  0  0  0  0
    3.7467   -2.4245   25.9868 H   0  0  0  0  0  0  0  0  0  0  0  0
    5.7112   -2.6701   21.2083 H   0  0  0  0  0  0  0  0  0  0  0  0
    7.2189   -0.5847   20.0889 H   0  0  0  0  0  0  0  0  0  0  0  0
    6.8425    1.8931   21.5999 H   0  0  0  0  0  0  0  0  0  0  0  0
    4.0283    1.2946   22.6624 H   0  0  0  0  0  0  0  0  0  0  0  0
  1  2  2  0
  2  3  2  0
  2  4  1  0
  4  5  1  0
  5  6  2  0
  6  7  1  0
  7  8  2  0
  8  9  1  0
  9 10  1  0
 10 11  1  0
 11 12  1  0
 12 13  1  0
 13 14  1  0
  2 15  1  0
 15 16  2  0
 16 17  1  0
 17 18  2  0
 18 19  1  0
 19 20  2  0
 20 21  1  0
 21 22  2  0
 22 23  1  0
  9  5  1  0
 14 10  1  0
 23 15  1  0
 23 18  1  0
  4 24  1  0
  6 25  1  0
  7 26  1  0
 10 27  1  0
 11 28  1  0
 11 29  1  0
 12 30  1  0
 12 31  1  0
 13 32  1  0
 13 33  1  0
 14 34  1  0
 14 35  1  0
 16 36  1  0
 19 37  1  0
 20 38  1  0
 21 39  1  0
 22 40  1  0
M  END
>  <Energy>  (436) 
200.8504619225256

>  <compound_id>  (436) 
55942

>  <target_id>  (436) 
1

>  <reference_id>  (436) 
103

>  <inspiration_ids>  (436) 
[7, 103]

>  <energy_score>  (436) 
158.95370026126545

>  <distance_score>  (436) 
12.865029097596695

>  <path>  (436) 
/opt/xchem-fragalysis-2/maxwin/BulkDock/SCRATCH/511024/C55942-P103/C55942-P103.minimised.mol

>  <scratch_subdir>  (436) 
/opt/xchem-fragalysis-2/maxwin/BulkDock/SCRATCH/511024/C55942-P103

>  <fragmenstein_runtime>  (436) 
7.1338536739349365

>  <fragmenstein_outcome>  (436) 
too moved

>  <fragmenstein_mode>  (436) 
expansion

>  <fragmenstein_error>  (436) 


$$$$
C55943-P7
     RDKit          3D

 40 43  0  0  0  0  0  0  0  0999 V2000
    2.6841   -5.5166   15.8225 C   0  0  0  0  0  0  0  0  0  0  0  0
    1.5962   -4.9200   16.3319 C   0  0  0  0  0  0  0  0  0  0  0  0
    1.5731   -5.0414   17.6948 N   0  0  0  0  0  0  0  0  0  0  0  0
    0.7681   -4.6547   18.7162 C   0  0  0  0  0  0  0  0  0  0  0  0
    1.3133   -5.1171   19.9468 C   0  0  0  0  0  0  0  0  0  0  0  0
    1.0251   -4.6265   21.6815 C   0  0  0  0  0  0  0  0  0  0  0  0
    0.3178   -5.3327   23.1207 N   0  0  0  0  0  0  0  0  0  0  0  0
   -1.3464   -5.2317   24.0162 C   0  0  0  0  0  0  0  0  0  0  0  0
   -2.6678   -3.8159   24.3651 C   0  0  0  0  0  0  0  0  0  0  0  0
   -3.1478   -2.5446   23.9748 C   0  0  0  0  0  0  0  0  0  0  0  0
   -3.7411   -1.8206   25.2028 C   0  0  0  0  0  0  0  0  0  0  0  0
   -3.8798   -2.5288   26.3689 N   0  0  0  0  0  0  0  0  0  0  0  0
   -5.3714   -2.8047   27.4206 C   0  0  0  0  0  0  0  0  0  0  0  0
   -7.2866   -2.5098   27.3132 C   0  0  0  0  0  0  0  0  0  0  0  0
   -7.9741   -2.1800   28.5990 C   0  0  0  0  0  0  0  0  0  0  0  0
   -7.1955   -3.1473   29.4318 C   0  0  0  0  0  0  0  0  0  0  0  0
   -5.7338   -3.5119   28.8993 C   0  0  0  0  0  0  0  0  0  0  0  0
   -2.9204   -3.6258   25.5984 N   0  0  0  0  0  0  0  0  0  0  0  0
    2.4905   -5.7565   19.5463 N   0  0  0  0  0  0  0  0  0  0  0  0
    2.5984   -5.6968   18.2528 C   0  0  0  0  0  0  0  0  0  0  0  0
    3.7267   -6.2429   17.0682 S   0  0  0  0  0  0  0  0  0  0  0  0
    2.8985   -5.5942   14.7673 H   0  0  0  0  0  0  0  0  0  0  0  0
    0.8036   -4.4158   15.8042 H   0  0  0  0  0  0  0  0  0  0  0  0
   -0.0540   -4.0220   18.4520 H   0  0  0  0  0  0  0  0  0  0  0  0
    0.8080   -3.5577   21.6226 H   0  0  0  0  0  0  0  0  0  0  0  0
    2.0012   -4.5066   22.0898 H   0  0  0  0  0  0  0  0  0  0  0  0
    0.6434   -6.2928   23.2249 H   0  0  0  0  0  0  0  0  0  0  0  0
   -2.0594   -6.0609   23.8617 H   0  0  0  0  0  0  0  0  0  0  0  0
   -1.0213   -5.7459   24.9527 H   0  0  0  0  0  0  0  0  0  0  0  0
   -2.7786   -2.0238   23.0918 H   0  0  0  0  0  0  0  0  0  0  0  0
   -3.9187   -0.8216   25.4592 H   0  0  0  0  0  0  0  0  0  0  0  0
   -4.8210   -2.1067   27.9363 H   0  0  0  0  0  0  0  0  0  0  0  0
   -7.7451   -1.9852   26.4489 H   0  0  0  0  0  0  0  0  0  0  0  0
   -7.8291   -3.4741   27.2089 H   0  0  0  0  0  0  0  0  0  0  0  0
   -9.0393   -2.4462   28.5828 H   0  0  0  0  0  0  0  0  0  0  0  0
   -7.9573   -1.1227   28.8767 H   0  0  0  0  0  0  0  0  0  0  0  0
   -7.1786   -2.7792   30.4568 H   0  0  0  0  0  0  0  0  0  0  0  0
   -7.7429   -4.0642   29.3170 H   0  0  0  0  0  0  0  0  0  0  0  0
   -5.7992   -4.5908   28.8630 H   0  0  0  0  0  0  0  0  0  0  0  0
   -5.0990   -3.1742   29.7079 H   0  0  0  0  0  0  0  0  0  0  0  0
  1  2  2  0
  2  3  1  0
  3  4  1  0
  4  5  2  0
  5  6  1  0
  6  7  1  0
  7  8  1  0
  8  9  1  0
  9 10  1  0
 10 11  2  0
 11 12  1  0
 12 13  1  0
 13 14  1  0
 14 15  1  0
 15 16  1  0
 16 17  1  0
 12 18  1  0
  5 19  1  0
 19 20  2  0
 20 21  1  0
 21  1  1  0
 20  3  1  0
 18  9  2  0
 17 13  1  0
  1 22  1  0
  2 23  1  0
  4 24  1  0
  6 25  1  0
  6 26  1  0
  7 27  1  0
  8 28  1  0
  8 29  1  0
 10 30  1  0
 11 31  1  0
 13 32  1  0
 14 33  1  0
 14 34  1  0
 15 35  1  0
 15 36  1  0
 16 37  1  0
 16 38  1  0
 17 39  1  0
 17 40  1  0
M  END
>  <Energy>  (437) 
631.0322103462654

>  <compound_id>  (437) 
55943

>  <target_id>  (437) 
1

>  <reference_id>  (437) 
7

>  <inspiration_ids>  (437) 
[7, 103]

>  <energy_score>  (437) 
526.091862711776

>  <distance_score>  (437) 
13.402971651981225

>  <path>  (437) 
/opt/xchem-fragalysis-2/maxwin/BulkDock/SCRATCH/511024/C55943-P7/C55943-P7.minimised.mol

>  <scratch_subdir>  (437) 
/opt/xchem-fragalysis-2/maxwin/BulkDock/SCRATCH/511024/C55943-P7

>  <fragmenstein_runtime>  (437) 
10.833453178405762

>  <fragmenstein_outcome>  (437) 
too moved

>  <fragmenstein_mode>  (437) 
expansion

>  <fragmenstein_error>  (437) 


$$$$
C55943-P103
     RDKit          3D

 40 43  0  0  0  0  0  0  0  0999 V2000
   10.8780    1.7624   14.4479 C   0  0  0  0  0  0  0  0  0  0  0  0
   10.2543    0.5836   14.6158 C   0  0  0  0  0  0  0  0  0  0  0  0
    9.4025    0.6063   15.6940 N   0  0  0  0  0  0  0  0  0  0  0  0
    8.5724   -0.2690   16.3442 C   0  0  0  0  0  0  0  0  0  0  0  0
    8.2158    0.3740   17.5476 C   0  0  0  0  0  0  0  0  0  0  0  0
    7.2968   -0.2089   19.0144 C   0  0  0  0  0  0  0  0  0  0  0  0
    6.8118    0.7037   20.1221 N   0  0  0  0  0  0  0  0  0  0  0  0
    6.8386    0.0185   21.4482 C   0  0  0  0  0  0  0  0  0  0  0  0
    6.1145    0.6962   22.6210 C   0  0  0  0  0  0  0  0  0  0  0  0
    5.5517    1.9929   22.7058 C   0  0  0  0  0  0  0  0  0  0  0  0
    4.9641    2.0743   23.9530 C   0  0  0  0  0  0  0  0  0  0  0  0
    5.1005    0.8372   24.5464 N   0  0  0  0  0  0  0  0  0  0  0  0
    4.5328    0.4094   25.8501 C   0  0  0  0  0  0  0  0  0  0  0  0
    3.3438    1.2340   26.4219 C   0  0  0  0  0  0  0  0  0  0  0  0
    2.6165    0.3487   27.4487 C   0  0  0  0  0  0  0  0  0  0  0  0
    3.1247   -1.0686   27.2162 C   0  0  0  0  0  0  0  0  0  0  0  0
    3.9767   -1.0176   25.9327 C   0  0  0  0  0  0  0  0  0  0  0  0
    5.9715    0.0543   23.8158 N   0  0  0  0  0  0  0  0  0  0  0  0
    8.6572    1.7085   17.4656 N   0  0  0  0  0  0  0  0  0  0  0  0
    9.3620    1.7768   16.3733 C   0  0  0  0  0  0  0  0  0  0  0  0
   10.3957    2.9698   15.6459 S   0  0  0  0  0  0  0  0  0  0  0  0
   11.6035    1.9850   13.6773 H   0  0  0  0  0  0  0  0  0  0  0  0
   10.3836   -0.3101   14.0310 H   0  0  0  0  0  0  0  0  0  0  0  0
    8.3621   -1.2332   15.9077 H   0  0  0  0  0  0  0  0  0  0  0  0
    6.4287   -0.8066   18.7141 H   0  0  0  0  0  0  0  0  0  0  0  0
    8.0214   -0.8488   19.4751 H   0  0  0  0  0  0  0  0  0  0  0  0
    7.3189    1.5870   20.1311 H   0  0  0  0  0  0  0  0  0  0  0  0
    7.8758   -0.0992   21.7653 H   0  0  0  0  0  0  0  0  0  0  0  0
    6.3933   -0.9782   21.3402 H   0  0  0  0  0  0  0  0  0  0  0  0
    5.5497    2.7545   21.9404 H   0  0  0  0  0  0  0  0  0  0  0  0
    4.4072    2.8678   24.4263 H   0  0  0  0  0  0  0  0  0  0  0  0
    5.3771    0.4979   26.5480 H   0  0  0  0  0  0  0  0  0  0  0  0
    3.6996    2.1602   26.8871 H   0  0  0  0  0  0  0  0  0  0  0  0
    2.6587    1.5331   25.6229 H   0  0  0  0  0  0  0  0  0  0  0  0
    2.8509    0.6715   28.4691 H   0  0  0  0  0  0  0  0  0  0  0  0
    1.5309    0.4181   27.3296 H   0  0  0  0  0  0  0  0  0  0  0  0
    3.7550   -1.3756   28.0591 H   0  0  0  0  0  0  0  0  0  0  0  0
    2.3109   -1.7949   27.1359 H   0  0  0  0  0  0  0  0  0  0  0  0
    3.3484   -1.2582   25.0756 H   0  0  0  0  0  0  0  0  0  0  0  0
    4.7794   -1.7563   25.9595 H   0  0  0  0  0  0  0  0  0  0  0  0
  1  2  2  0
  2  3  1  0
  3  4  1  0
  4  5  2  0
  5  6  1  0
  6  7  1  0
  7  8  1  0
  8  9  1  0
  9 10  1  0
 10 11  2  0
 11 12  1  0
 12 13  1  0
 13 14  1  0
 14 15  1  0
 15 16  1  0
 16 17  1  0
 12 18  1  0
  5 19  1  0
 19 20  2  0
 20 21  1  0
 21  1  1  0
 20  3  1  0
 18  9  2  0
 17 13  1  0
  1 22  1  0
  2 23  1  0
  4 24  1  0
  6 25  1  0
  6 26  1  0
  7 27  1  0
  8 28  1  0
  8 29  1  0
 10 30  1  0
 11 31  1  0
 13 32  1  0
 14 33  1  0
 14 34  1  0
 15 35  1  0
 15 36  1  0
 16 37  1  0
 16 38  1  0
 17 39  1  0
 17 40  1  0
M  END
>  <Energy>  (438) 
106.7507644069039

>  <compound_id>  (438) 
55943

>  <target_id>  (438) 
1

>  <reference_id>  (438) 
103

>  <inspiration_ids>  (438) 
[7, 103]

>  <energy_score>  (438) 
1.8104167724166587

>  <distance_score>  (438) 
11.933930064279512

>  <path>  (438) 
/opt/xchem-fragalysis-2/maxwin/BulkDock/SCRATCH/511024/C55943-P103/C55943-P103.minimised.mol

>  <scratch_subdir>  (438) 
/opt/xchem-fragalysis-2/maxwin/BulkDock/SCRATCH/511024/C55943-P103

>  <fragmenstein_runtime>  (438) 
10.535776376724243

>  <fragmenstein_outcome>  (438) 
too moved

>  <fragmenstein_mode>  (438) 
expansion

>  <fragmenstein_error>  (438) 


$$$$
C55945-P7
     RDKit          3D

 46 49  0  0  0  0  0  0  0  0999 V2000
   12.8618   -1.3555   14.2984 C   0  0  0  0  0  0  0  0  0  0  0  0
   13.2420    0.0470   14.3745 C   0  0  0  0  0  0  0  0  0  0  0  0
   12.4129    0.9183   14.9766 C   0  0  0  0  0  0  0  0  0  0  0  0
   11.2257    0.4494   15.5321 N   0  0  0  0  0  0  0  0  0  0  0  0
   10.2253    1.1252   16.1996 C   0  0  0  0  0  0  0  0  0  0  0  0
    9.3397    0.1554   16.6347 C   0  0  0  0  0  0  0  0  0  0  0  0
    8.0263    0.2255   17.4226 C   0  0  0  0  0  0  0  0  0  0  0  0
    7.4706   -0.1921   19.2131 C   0  0  0  0  0  0  0  0  0  0  0  0
    6.1216   -0.6786   19.9542 N   0  0  0  0  0  0  0  0  0  0  0  0
    5.8857   -0.0220   21.3739 C   0  0  0  0  0  0  0  0  0  0  0  0
    4.8521   -0.6175   22.5150 C   0  0  0  0  0  0  0  0  0  0  0  0
    4.2370   -1.8921   22.5871 C   0  0  0  0  0  0  0  0  0  0  0  0
    3.7369   -2.0228   23.8682 C   0  0  0  0  0  0  0  0  0  0  0  0
    3.8928   -0.8259   24.5109 N   0  0  0  0  0  0  0  0  0  0  0  0
    3.7095   -0.5515   25.9570 C   0  0  0  0  0  0  0  0  0  0  0  0
    3.0243   -1.5942   26.9027 C   0  0  0  0  0  0  0  0  0  0  0  0
    1.8864   -0.8982   27.6544 C   0  0  0  0  0  0  0  0  0  0  0  0
    2.2773    0.5657   27.6372 C   0  0  0  0  0  0  0  0  0  0  0  0
    3.0339    0.7855   26.3106 C   0  0  0  0  0  0  0  0  0  0  0  0
    4.5896    0.0577   23.6858 N   0  0  0  0  0  0  0  0  0  0  0  0
    9.7397   -1.0724   16.1808 N   0  0  0  0  0  0  0  0  0  0  0  0
   10.8571   -0.8866   15.5162 C   0  0  0  0  0  0  0  0  0  0  0  0
   11.7165   -1.8013   14.8481 C   0  0  0  0  0  0  0  0  0  0  0  0
   13.5202   -2.0331   13.7642 H   0  0  0  0  0  0  0  0  0  0  0  0
   14.1790    0.3597   13.9266 H   0  0  0  0  0  0  0  0  0  0  0  0
   12.6211    1.9767   15.0588 H   0  0  0  0  0  0  0  0  0  0  0  0
   10.2512    2.1982   16.3191 H   0  0  0  0  0  0  0  0  0  0  0  0
    7.3660   -0.3030   16.7142 H   0  0  0  0  0  0  0  0  0  0  0  0
    7.9464    1.3289   17.3716 H   0  0  0  0  0  0  0  0  0  0  0  0
    7.4304    0.8044   19.6675 H   0  0  0  0  0  0  0  0  0  0  0  0
    8.2187   -0.8049   19.6965 H   0  0  0  0  0  0  0  0  0  0  0  0
    5.2953   -0.5424   19.3706 H   0  0  0  0  0  0  0  0  0  0  0  0
    6.8619   -0.0208   21.8752 H   0  0  0  0  0  0  0  0  0  0  0  0
    5.5792    1.0157   21.1970 H   0  0  0  0  0  0  0  0  0  0  0  0
    4.2812   -2.6743   21.8426 H   0  0  0  0  0  0  0  0  0  0  0  0
    3.3285   -2.8901   24.3587 H   0  0  0  0  0  0  0  0  0  0  0  0
    4.7530   -0.4845   26.3021 H   0  0  0  0  0  0  0  0  0  0  0  0
    2.6985   -2.5130   26.4224 H   0  0  0  0  0  0  0  0  0  0  0  0
    3.7734   -1.9081   27.6431 H   0  0  0  0  0  0  0  0  0  0  0  0
    0.9308   -1.0463   27.1540 H   0  0  0  0  0  0  0  0  0  0  0  0
    1.7791   -1.2814   28.6740 H   0  0  0  0  0  0  0  0  0  0  0  0
    1.4145    1.2315   27.7313 H   0  0  0  0  0  0  0  0  0  0  0  0
    2.9543    0.7757   28.4741 H   0  0  0  0  0  0  0  0  0  0  0  0
    2.3623    1.1237   25.5210 H   0  0  0  0  0  0  0  0  0  0  0  0
    3.7793    1.5810   26.4277 H   0  0  0  0  0  0  0  0  0  0  0  0
   11.4135   -2.8397   14.7773 H   0  0  0  0  0  0  0  0  0  0  0  0
  1  2  1  0
  2  3  2  0
  3  4  1  0
  4  5  1  0
  5  6  2  0
  6  7  1  0
  7  8  1  0
  8  9  1  0
  9 10  1  0
 10 11  1  0
 11 12  1  0
 12 13  2  0
 13 14  1  0
 14 15  1  0
 15 16  1  0
 16 17  1  0
 17 18  1  0
 18 19  1  0
 14 20  1  0
  6 21  1  0
 21 22  2  0
 22 23  1  0
 23  1  2  0
 22  4  1  0
 20 11  2  0
 19 15  1  0
  1 24  1  0
  2 25  1  0
  3 26  1  0
  5 27  1  0
  7 28  1  0
  7 29  1  0
  8 30  1  0
  8 31  1  0
  9 32  1  0
 10 33  1  0
 10 34  1  0
 12 35  1  0
 13 36  1  0
 15 37  1  0
 16 38  1  0
 16 39  1  0
 17 40  1  0
 17 41  1  0
 18 42  1  0
 18 43  1  0
 19 44  1  0
 19 45  1  0
 23 46  1  0
M  END
>  <Energy>  (439) 
177.2999479937699

>  <compound_id>  (439) 
55945

>  <target_id>  (439) 
1

>  <reference_id>  (439) 
7

>  <inspiration_ids>  (439) 
[7, 103]

>  <energy_score>  (439) 
71.02117088441281

>  <distance_score>  (439) 
14.418445306043838

>  <path>  (439) 
/opt/xchem-fragalysis-2/maxwin/BulkDock/SCRATCH/511024/C55945-P7/C55945-P7.minimised.mol

>  <scratch_subdir>  (439) 
/opt/xchem-fragalysis-2/maxwin/BulkDock/SCRATCH/511024/C55945-P7

>  <fragmenstein_runtime>  (439) 
8.428843975067139

>  <fragmenstein_outcome>  (439) 
too moved

>  <fragmenstein_mode>  (439) 
expansion

>  <fragmenstein_error>  (439) 


$$$$
C55945-P103
     RDKit          3D

 46 49  0  0  0  0  0  0  0  0999 V2000
    5.9018   -0.8253   20.5236 C   0  0  0  0  0  0  0  0  0  0  0  0
    7.2032   -0.9735   21.1456 C   0  0  0  0  0  0  0  0  0  0  0  0
    7.3369   -0.7826   22.4697 C   0  0  0  0  0  0  0  0  0  0  0  0
    6.2124   -0.4177   23.2101 N   0  0  0  0  0  0  0  0  0  0  0  0
    6.0618   -0.1958   24.5632 C   0  0  0  0  0  0  0  0  0  0  0  0
    4.7267    0.1316   24.7611 C   0  0  0  0  0  0  0  0  0  0  0  0
    3.9750    0.5444   26.0229 C   0  0  0  0  0  0  0  0  0  0  0  0
    3.0933   -0.5585   26.7412 C   0  0  0  0  0  0  0  0  0  0  0  0
    2.0463   -0.0929   27.7836 N   0  0  0  0  0  0  0  0  0  0  0  0
    1.2152   -1.2303   28.3750 C   0  0  0  0  0  0  0  0  0  0  0  0
    0.0020   -0.8458   29.3460 C   0  0  0  0  0  0  0  0  0  0  0  0
   -0.6185    0.4222   29.5167 C   0  0  0  0  0  0  0  0  0  0  0  0
   -1.6278    0.2429   30.4352 C   0  0  0  0  0  0  0  0  0  0  0  0
   -1.6187   -1.0819   30.7870 N   0  0  0  0  0  0  0  0  0  0  0  0
   -2.5675   -1.6665   31.7290 C   0  0  0  0  0  0  0  0  0  0  0  0
   -3.1911   -3.0349   31.4317 C   0  0  0  0  0  0  0  0  0  0  0  0
   -3.9732   -3.3493   32.7130 C   0  0  0  0  0  0  0  0  0  0  0  0
   -3.2047   -2.6519   33.8394 C   0  0  0  0  0  0  0  0  0  0  0  0
   -2.0652   -1.8685   33.1586 C   0  0  0  0  0  0  0  0  0  0  0  0
   -0.6456   -1.7727   30.1212 N   0  0  0  0  0  0  0  0  0  0  0  0
    4.0834    0.1633   23.5370 N   0  0  0  0  0  0  0  0  0  0  0  0
    4.9655   -0.2090   22.6363 C   0  0  0  0  0  0  0  0  0  0  0  0
    4.8328   -0.4375   21.2382 C   0  0  0  0  0  0  0  0  0  0  0  0
    5.7888   -1.0536   19.4693 H   0  0  0  0  0  0  0  0  0  0  0  0
    8.0238   -1.2516   20.5089 H   0  0  0  0  0  0  0  0  0  0  0  0
    8.2663   -0.8952   23.0123 H   0  0  0  0  0  0  0  0  0  0  0  0
    6.8907   -0.2861   25.2496 H   0  0  0  0  0  0  0  0  0  0  0  0
    3.3120    1.3745   25.7465 H   0  0  0  0  0  0  0  0  0  0  0  0
    4.6896    0.9459   26.7516 H   0  0  0  0  0  0  0  0  0  0  0  0
    2.5640   -1.1201   25.9730 H   0  0  0  0  0  0  0  0  0  0  0  0
    3.7677   -1.2624   27.2437 H   0  0  0  0  0  0  0  0  0  0  0  0
    2.5473    0.3451   28.5549 H   0  0  0  0  0  0  0  0  0  0  0  0
    1.8858   -1.8876   28.9408 H   0  0  0  0  0  0  0  0  0  0  0  0
    0.7746   -1.8049   27.5561 H   0  0  0  0  0  0  0  0  0  0  0  0
   -0.3506    1.3434   29.0166 H   0  0  0  0  0  0  0  0  0  0  0  0
   -2.3425    0.9348   30.8494 H   0  0  0  0  0  0  0  0  0  0  0  0
   -3.3895   -0.9401   31.7879 H   0  0  0  0  0  0  0  0  0  0  0  0
   -2.4098   -3.7884   31.2721 H   0  0  0  0  0  0  0  0  0  0  0  0
   -3.8363   -3.0423   30.5507 H   0  0  0  0  0  0  0  0  0  0  0  0
   -4.0603   -4.4274   32.8785 H   0  0  0  0  0  0  0  0  0  0  0  0
   -4.9866   -2.9370   32.6472 H   0  0  0  0  0  0  0  0  0  0  0  0
   -2.8054   -3.3691   34.5636 H   0  0  0  0  0  0  0  0  0  0  0  0
   -3.8702   -1.9697   34.3806 H   0  0  0  0  0  0  0  0  0  0  0  0
   -1.8613   -0.9226   33.6702 H   0  0  0  0  0  0  0  0  0  0  0  0
   -1.1412   -2.4596   33.1669 H   0  0  0  0  0  0  0  0  0  0  0  0
    3.8498   -0.3323   20.7925 H   0  0  0  0  0  0  0  0  0  0  0  0
  1  2  1  0
  2  3  2  0
  3  4  1  0
  4  5  1  0
  5  6  2  0
  6  7  1  0
  7  8  1  0
  8  9  1  0
  9 10  1  0
 10 11  1  0
 11 12  1  0
 12 13  2  0
 13 14  1  0
 14 15  1  0
 15 16  1  0
 16 17  1  0
 17 18  1  0
 18 19  1  0
 14 20  1  0
  6 21  1  0
 21 22  2  0
 22 23  1  0
 23  1  2  0
 22  4  1  0
 20 11  2  0
 19 15  1  0
  1 24  1  0
  2 25  1  0
  3 26  1  0
  5 27  1  0
  7 28  1  0
  7 29  1  0
  8 30  1  0
  8 31  1  0
  9 32  1  0
 10 33  1  0
 10 34  1  0
 12 35  1  0
 13 36  1  0
 15 37  1  0
 16 38  1  0
 16 39  1  0
 17 40  1  0
 17 41  1  0
 18 42  1  0
 18 43  1  0
 19 44  1  0
 19 45  1  0
 23 46  1  0
M  END
>  <Energy>  (440) 
83.696716810100327

>  <compound_id>  (440) 
55945

>  <target_id>  (440) 
1

>  <reference_id>  (440) 
103

>  <inspiration_ids>  (440) 
[7, 103]

>  <energy_score>  (440) 
-22.582060299253442

>  <distance_score>  (440) 
11.684686922616109

>  <path>  (440) 
/opt/xchem-fragalysis-2/maxwin/BulkDock/SCRATCH/511024/C55945-P103/C55945-P103.minimised.mol

>  <scratch_subdir>  (440) 
/opt/xchem-fragalysis-2/maxwin/BulkDock/SCRATCH/511024/C55945-P103

>  <fragmenstein_runtime>  (440) 
9.45792007446289

>  <fragmenstein_outcome>  (440) 
too moved

>  <fragmenstein_mode>  (440) 
expansion

>  <fragmenstein_error>  (440) 


$$$$
C55946-P7
     RDKit          3D

 43 46  0  0  0  0  0  0  0  0999 V2000
    4.1197    1.0835   27.9585 O   0  0  0  0  0  0  0  0  0  0  0  0
    3.1361    0.1379   27.0042 S   0  0  0  0  0  0  0  0  0  0  0  0
    4.1934   -1.2051   26.2684 C   0  0  0  0  0  0  0  0  0  0  0  0
    4.9052   -0.8645   24.9717 C   0  0  0  0  0  0  0  0  0  0  0  0
    5.7023    0.2078   24.6041 C   0  0  0  0  0  0  0  0  0  0  0  0
    6.0010    0.0279   23.2719 N   0  0  0  0  0  0  0  0  0  0  0  0
    6.6109    0.8913   22.3691 C   0  0  0  0  0  0  0  0  0  0  0  0
    6.6382    0.5550   21.0697 C   0  0  0  0  0  0  0  0  0  0  0  0
    6.1039   -0.7247   20.6462 C   0  0  0  0  0  0  0  0  0  0  0  0
    5.5663   -1.5802   21.5333 C   0  0  0  0  0  0  0  0  0  0  0  0
    5.4630   -1.1963   22.9006 C   0  0  0  0  0  0  0  0  0  0  0  0
    4.8498   -1.7648   23.9139 N   0  0  0  0  0  0  0  0  0  0  0  0
    1.9824   -0.9184   28.2404 C   0  0  0  0  0  0  0  0  0  0  0  0
    1.0078   -0.0816   29.1378 C   0  0  0  0  0  0  0  0  0  0  0  0
    0.9495    1.2987   29.2770 C   0  0  0  0  0  0  0  0  0  0  0  0
    0.0091    1.5757   30.2750 C   0  0  0  0  0  0  0  0  0  0  0  0
   -0.5725    0.4784   30.7346 N   0  0  0  0  0  0  0  0  0  0  0  0
    0.0309   -0.5364   30.0507 N   0  0  0  0  0  0  0  0  0  0  0  0
   -0.4072   -1.8850   30.4289 C   0  0  0  0  0  0  0  0  0  0  0  0
   -1.9445   -2.0461   30.3549 C   0  0  0  0  0  0  0  0  0  0  0  0
   -2.4107   -2.6381   31.6864 C   0  0  0  0  0  0  0  0  0  0  0  0
   -1.3866   -2.1259   32.6763 C   0  0  0  0  0  0  0  0  0  0  0  0
   -0.0670   -2.2318   31.8957 C   0  0  0  0  0  0  0  0  0  0  0  0
    4.9212   -1.4976   27.0314 H   0  0  0  0  0  0  0  0  0  0  0  0
    3.5225   -2.0517   26.0911 H   0  0  0  0  0  0  0  0  0  0  0  0
    6.0066    1.0927   25.1462 H   0  0  0  0  0  0  0  0  0  0  0  0
    6.9733    1.8377   22.7508 H   0  0  0  0  0  0  0  0  0  0  0  0
    7.0150    1.2498   20.3363 H   0  0  0  0  0  0  0  0  0  0  0  0
    6.1024   -0.9698   19.5921 H   0  0  0  0  0  0  0  0  0  0  0  0
    5.1321   -2.5268   21.2310 H   0  0  0  0  0  0  0  0  0  0  0  0
    1.4169   -1.5863   27.5864 H   0  0  0  0  0  0  0  0  0  0  0  0
    2.6860   -1.4748   28.8656 H   0  0  0  0  0  0  0  0  0  0  0  0
    1.5699    2.0216   28.7629 H   0  0  0  0  0  0  0  0  0  0  0  0
   -0.2507    2.5383   30.6893 H   0  0  0  0  0  0  0  0  0  0  0  0
    0.0962   -2.5774   29.7453 H   0  0  0  0  0  0  0  0  0  0  0  0
   -2.2162   -2.6741   29.5046 H   0  0  0  0  0  0  0  0  0  0  0  0
   -2.4299   -1.0781   30.2023 H   0  0  0  0  0  0  0  0  0  0  0  0
   -3.4322   -2.3423   31.9408 H   0  0  0  0  0  0  0  0  0  0  0  0
   -2.3662   -3.7316   31.6517 H   0  0  0  0  0  0  0  0  0  0  0  0
   -1.3658   -2.7132   33.5986 H   0  0  0  0  0  0  0  0  0  0  0  0
   -1.5918   -1.0817   32.9376 H   0  0  0  0  0  0  0  0  0  0  0  0
    0.2870   -3.2695   31.9419 H   0  0  0  0  0  0  0  0  0  0  0  0
    0.7130   -1.5973   32.3287 H   0  0  0  0  0  0  0  0  0  0  0  0
  1  2  1  0
  2  3  1  0
  3  4  1  0
  4  5  2  0
  5  6  1  0
  6  7  1  0
  7  8  2  0
  8  9  1  0
  9 10  2  0
 10 11  1  0
 11 12  2  0
  2 13  1  0
 13 14  1  0
 14 15  2  0
 15 16  1  0
 16 17  2  0
 17 18  1  0
 18 19  1  0
 19 20  1  0
 20 21  1  0
 21 22  1  0
 22 23  1  0
 12  4  1  0
 18 14  1  0
 23 19  1  0
 11  6  1  0
  3 24  1  0
  3 25  1  0
  5 26  1  0
  7 27  1  0
  8 28  1  0
  9 29  1  0
 10 30  1  0
 13 31  1  0
 13 32  1  0
 15 33  1  0
 16 34  1  0
 19 35  1  0
 20 36  1  0
 20 37  1  0
 21 38  1  0
 21 39  1  0
 22 40  1  0
 22 41  1  0
 23 42  1  0
 23 43  1  0
M  CHG  2   1  -1   2   1
M  END
>  <Energy>  (441) 
75.758441588656069

>  <compound_id>  (441) 
55946

>  <target_id>  (441) 
1

>  <reference_id>  (441) 
7

>  <inspiration_ids>  (441) 
[7, 103]

>  <energy_score>  (441) 
-19.071765384137166

>  <distance_score>  (441) 
12.60853704215988

>  <path>  (441) 
/opt/xchem-fragalysis-2/maxwin/BulkDock/SCRATCH/511024/C55946-P7/C55946-P7.minimised.mol

>  <scratch_subdir>  (441) 
/opt/xchem-fragalysis-2/maxwin/BulkDock/SCRATCH/511024/C55946-P7

>  <fragmenstein_runtime>  (441) 
9.140442848205566

>  <fragmenstein_outcome>  (441) 
too moved

>  <fragmenstein_mode>  (441) 
expansion

>  <fragmenstein_error>  (441) 


$$$$
C55946-P103
     RDKit          3D

 43 46  0  0  0  0  0  0  0  0999 V2000
    3.9537   -1.8899   27.5712 O   0  0  0  0  0  0  0  0  0  0  0  0
    2.8810   -0.7570   26.9699 S   0  0  0  0  0  0  0  0  0  0  0  0
    3.9439    0.6358   26.2846 C   0  0  0  0  0  0  0  0  0  0  0  0
    4.5965    0.3256   24.9346 C   0  0  0  0  0  0  0  0  0  0  0  0
    5.9373    0.2472   24.5666 C   0  0  0  0  0  0  0  0  0  0  0  0
    5.9616   -0.0085   23.2090 N   0  0  0  0  0  0  0  0  0  0  0  0
    7.0300   -0.1451   22.3211 C   0  0  0  0  0  0  0  0  0  0  0  0
    6.7689   -0.4306   21.0319 C   0  0  0  0  0  0  0  0  0  0  0  0
    5.4049   -0.6398   20.5977 C   0  0  0  0  0  0  0  0  0  0  0  0
    4.3818   -0.4547   21.4479 C   0  0  0  0  0  0  0  0  0  0  0  0
    4.6371   -0.0977   22.8051 C   0  0  0  0  0  0  0  0  0  0  0  0
    3.8194    0.1838   23.7986 N   0  0  0  0  0  0  0  0  0  0  0  0
    2.0351   -0.0102   28.5337 C   0  0  0  0  0  0  0  0  0  0  0  0
    0.4859    0.1974   28.5995 C   0  0  0  0  0  0  0  0  0  0  0  0
   -0.2536    1.0760   27.8167 C   0  0  0  0  0  0  0  0  0  0  0  0
   -1.5383    1.1476   28.3703 C   0  0  0  0  0  0  0  0  0  0  0  0
   -1.6633    0.3724   29.4372 N   0  0  0  0  0  0  0  0  0  0  0  0
   -0.4594   -0.2541   29.5553 N   0  0  0  0  0  0  0  0  0  0  0  0
   -0.3784   -1.2174   30.6632 C   0  0  0  0  0  0  0  0  0  0  0  0
   -0.8411   -0.6326   32.0270 C   0  0  0  0  0  0  0  0  0  0  0  0
   -2.2608   -1.1444   32.2628 C   0  0  0  0  0  0  0  0  0  0  0  0
   -2.2068   -2.5490   31.6987 C   0  0  0  0  0  0  0  0  0  0  0  0
   -1.3038   -2.4416   30.4552 C   0  0  0  0  0  0  0  0  0  0  0  0
    4.7025    0.8585   27.0408 H   0  0  0  0  0  0  0  0  0  0  0  0
    3.2814    1.4997   26.1719 H   0  0  0  0  0  0  0  0  0  0  0  0
    6.8471    0.3423   25.1411 H   0  0  0  0  0  0  0  0  0  0  0  0
    8.0232    0.0100   22.7214 H   0  0  0  0  0  0  0  0  0  0  0  0
    7.5272   -0.5171   20.2770 H   0  0  0  0  0  0  0  0  0  0  0  0
    5.2148   -0.9496   19.5737 H   0  0  0  0  0  0  0  0  0  0  0  0
    3.3548   -0.6056   21.1346 H   0  0  0  0  0  0  0  0  0  0  0  0
    2.3289   -0.6846   29.3442 H   0  0  0  0  0  0  0  0  0  0  0  0
    2.5291    0.9528   28.7009 H   0  0  0  0  0  0  0  0  0  0  0  0
    0.1192    1.6529   26.9823 H   0  0  0  0  0  0  0  0  0  0  0  0
   -2.3705    1.7604   28.0478 H   0  0  0  0  0  0  0  0  0  0  0  0
    0.6701   -1.5261   30.7233 H   0  0  0  0  0  0  0  0  0  0  0  0
   -0.7855    0.4599   32.0743 H   0  0  0  0  0  0  0  0  0  0  0  0
   -0.1882   -1.0277   32.8159 H   0  0  0  0  0  0  0  0  0  0  0  0
   -2.5342   -1.1308   33.3216 H   0  0  0  0  0  0  0  0  0  0  0  0
   -2.9843   -0.5326   31.7158 H   0  0  0  0  0  0  0  0  0  0  0  0
   -1.7450   -3.2275   32.4259 H   0  0  0  0  0  0  0  0  0  0  0  0
   -3.2019   -2.9335   31.4672 H   0  0  0  0  0  0  0  0  0  0  0  0
   -0.7159   -3.3586   30.3363 H   0  0  0  0  0  0  0  0  0  0  0  0
   -1.9181   -2.3413   29.5532 H   0  0  0  0  0  0  0  0  0  0  0  0
  1  2  1  0
  2  3  1  0
  3  4  1  0
  4  5  2  0
  5  6  1  0
  6  7  1  0
  7  8  2  0
  8  9  1  0
  9 10  2  0
 10 11  1  0
 11 12  2  0
  2 13  1  0
 13 14  1  0
 14 15  2  0
 15 16  1  0
 16 17  2  0
 17 18  1  0
 18 19  1  0
 19 20  1  0
 20 21  1  0
 21 22  1  0
 22 23  1  0
 12  4  1  0
 18 14  1  0
 23 19  1  0
 11  6  1  0
  3 24  1  0
  3 25  1  0
  5 26  1  0
  7 27  1  0
  8 28  1  0
  9 29  1  0
 10 30  1  0
 13 31  1  0
 13 32  1  0
 15 33  1  0
 16 34  1  0
 19 35  1  0
 20 36  1  0
 20 37  1  0
 21 38  1  0
 21 39  1  0
 22 40  1  0
 22 41  1  0
 23 42  1  0
 23 43  1  0
M  CHG  2   1  -1   2   1
M  END
>  <Energy>  (442) 
81.942573645342605

>  <compound_id>  (442) 
55946

>  <target_id>  (442) 
1

>  <reference_id>  (442) 
103

>  <inspiration_ids>  (442) 
[7, 103]

>  <energy_score>  (442) 
-12.88763332745043

>  <distance_score>  (442) 
12.585757281440726

>  <path>  (442) 
/opt/xchem-fragalysis-2/maxwin/BulkDock/SCRATCH/511024/C55946-P103/C55946-P103.minimised.mol

>  <scratch_subdir>  (442) 
/opt/xchem-fragalysis-2/maxwin/BulkDock/SCRATCH/511024/C55946-P103

>  <fragmenstein_runtime>  (442) 
10.176673173904419

>  <fragmenstein_outcome>  (442) 
too moved

>  <fragmenstein_mode>  (442) 
expansion

>  <fragmenstein_error>  (442) 


$$$$
C55948-P7
     RDKit          3D

 39 42  0  0  0  0  0  0  0  0999 V2000
    5.4240   -0.9449   24.4245 O   0  0  0  0  0  0  0  0  0  0  0  0
    4.7300   -0.0878   23.8719 C   0  0  0  0  0  0  0  0  0  0  0  0
    4.9468    0.4925   22.0566 N   0  0  0  0  0  0  0  0  0  0  0  0
    6.2545    0.0521   20.7779 C   0  0  0  0  0  0  0  0  0  0  0  0
    7.1282   -0.9279   20.5161 C   0  0  0  0  0  0  0  0  0  0  0  0
    8.1477   -0.8557   19.6178 N   0  0  0  0  0  0  0  0  0  0  0  0
    7.7542   -0.2268   18.5582 C   0  0  0  0  0  0  0  0  0  0  0  0
    8.3073   -0.0791   17.1111 C   0  0  0  0  0  0  0  0  0  0  0  0
    8.4473    1.0942   16.5157 C   0  0  0  0  0  0  0  0  0  0  0  0
    7.5372    2.0529   16.9740 C   0  0  0  0  0  0  0  0  0  0  0  0
    6.6330    1.6591   17.8848 C   0  0  0  0  0  0  0  0  0  0  0  0
    6.7003    0.4226   18.9535 N   0  0  0  0  0  0  0  0  0  0  0  0
    3.6136    0.6135   25.0537 C   0  0  0  0  0  0  0  0  0  0  0  0
    3.6492   -0.1102   26.3326 C   0  0  0  0  0  0  0  0  0  0  0  0
    2.7926    0.4708   27.2190 C   0  0  0  0  0  0  0  0  0  0  0  0
    2.1420    1.4492   26.5247 N   0  0  0  0  0  0  0  0  0  0  0  0
    0.9928    2.1673   27.1226 C   0  0  0  0  0  0  0  0  0  0  0  0
   -0.1501    2.6409   26.2019 C   0  0  0  0  0  0  0  0  0  0  0  0
   -1.4762    2.1504   26.8345 C   0  0  0  0  0  0  0  0  0  0  0  0
   -1.1684    1.9608   28.3059 C   0  0  0  0  0  0  0  0  0  0  0  0
    0.2331    1.3734   28.2477 C   0  0  0  0  0  0  0  0  0  0  0  0
    2.7030    1.6532   25.2195 N   0  0  0  0  0  0  0  0  0  0  0  0
    4.1958    1.1424   21.8143 H   0  0  0  0  0  0  0  0  0  0  0  0
    6.7504   -1.8303   20.9043 H   0  0  0  0  0  0  0  0  0  0  0  0
    8.7329   -0.9130   16.5465 H   0  0  0  0  0  0  0  0  0  0  0  0
    8.9317    1.1978   15.5499 H   0  0  0  0  0  0  0  0  0  0  0  0
    7.3678    2.9320   16.3569 H   0  0  0  0  0  0  0  0  0  0  0  0
    5.7759    2.3007   17.7112 H   0  0  0  0  0  0  0  0  0  0  0  0
    4.2812   -0.9684   26.5326 H   0  0  0  0  0  0  0  0  0  0  0  0
    2.5780    0.2223   28.2476 H   0  0  0  0  0  0  0  0  0  0  0  0
    1.4541    3.0542   27.5786 H   0  0  0  0  0  0  0  0  0  0  0  0
   -0.1545    3.7383   26.1851 H   0  0  0  0  0  0  0  0  0  0  0  0
   -0.0524    2.3192   25.1639 H   0  0  0  0  0  0  0  0  0  0  0  0
   -2.2947    2.8556   26.6638 H   0  0  0  0  0  0  0  0  0  0  0  0
   -1.7590    1.1898   26.3936 H   0  0  0  0  0  0  0  0  0  0  0  0
   -1.1579    2.9257   28.8248 H   0  0  0  0  0  0  0  0  0  0  0  0
   -1.8818    1.2996   28.8049 H   0  0  0  0  0  0  0  0  0  0  0  0
    0.7429    1.4562   29.2132 H   0  0  0  0  0  0  0  0  0  0  0  0
    0.1641    0.3088   27.9888 H   0  0  0  0  0  0  0  0  0  0  0  0
  1  2  2  0
  2  3  1  0
  3  4  1  0
  4  5  2  0
  5  6  1  0
  6  7  2  0
  7  8  1  0
  8  9  2  0
  9 10  1  0
 10 11  2  0
 11 12  1  0
  2 13  1  0
 13 14  1  0
 14 15  2  0
 15 16  1  0
 16 17  1  0
 17 18  1  0
 18 19  1  0
 19 20  1  0
 20 21  1  0
 16 22  1  0
 12  4  1  0
 22 13  2  0
 12  7  1  0
 21 17  1  0
  3 23  1  0
  5 24  1  0
  8 25  1  0
  9 26  1  0
 10 27  1  0
 11 28  1  0
 14 29  1  0
 15 30  1  0
 17 31  1  0
 18 32  1  0
 18 33  1  0
 19 34  1  0
 19 35  1  0
 20 36  1  0
 20 37  1  0
 21 38  1  0
 21 39  1  0
M  END
>  <Energy>  (443) 
539.67018926426363

>  <compound_id>  (443) 
55948

>  <target_id>  (443) 
1

>  <reference_id>  (443) 
7

>  <inspiration_ids>  (443) 
[7, 103]

>  <energy_score>  (443) 
388.09792584245895

>  <distance_score>  (443) 
13.812276581648492

>  <path>  (443) 
/opt/xchem-fragalysis-2/maxwin/BulkDock/SCRATCH/511024/C55948-P7/C55948-P7.minimised.mol

>  <scratch_subdir>  (443) 
/opt/xchem-fragalysis-2/maxwin/BulkDock/SCRATCH/511024/C55948-P7

>  <fragmenstein_runtime>  (443) 
11.996247291564941

>  <fragmenstein_outcome>  (443) 
too moved

>  <fragmenstein_mode>  (443) 
expansion

>  <fragmenstein_error>  (443) 


$$$$
C55948-P103
     RDKit          3D

 39 42  0  0  0  0  0  0  0  0999 V2000
    4.7057    0.3655   24.9457 O   0  0  0  0  0  0  0  0  0  0  0  0
    4.3945   -0.7693   24.7016 C   0  0  0  0  0  0  0  0  0  0  0  0
    4.7144   -1.6992   23.3790 N   0  0  0  0  0  0  0  0  0  0  0  0
    5.5068   -1.3070   21.8491 C   0  0  0  0  0  0  0  0  0  0  0  0
    5.9863   -2.3081   21.0223 C   0  0  0  0  0  0  0  0  0  0  0  0
    7.4661   -1.5571   20.5561 N   0  0  0  0  0  0  0  0  0  0  0  0
    7.1929   -0.5944   19.7766 C   0  0  0  0  0  0  0  0  0  0  0  0
    6.9924   -0.0417   18.4575 C   0  0  0  0  0  0  0  0  0  0  0  0
    7.2670    1.2348   18.2605 C   0  0  0  0  0  0  0  0  0  0  0  0
    7.5073    1.9433   19.5105 C   0  0  0  0  0  0  0  0  0  0  0  0
    7.4818    1.4025   20.8759 C   0  0  0  0  0  0  0  0  0  0  0  0
    6.6559   -0.1196   20.9232 N   0  0  0  0  0  0  0  0  0  0  0  0
    3.4363   -1.3265   25.8506 C   0  0  0  0  0  0  0  0  0  0  0  0
    3.0894   -2.6375   26.1361 C   0  0  0  0  0  0  0  0  0  0  0  0
    2.3043   -2.6838   27.2747 C   0  0  0  0  0  0  0  0  0  0  0  0
    2.0182   -1.3895   27.5726 N   0  0  0  0  0  0  0  0  0  0  0  0
    1.1045   -0.9329   28.6365 C   0  0  0  0  0  0  0  0  0  0  0  0
    0.0099    0.0655   28.2058 C   0  0  0  0  0  0  0  0  0  0  0  0
   -1.2711   -0.2721   29.0077 C   0  0  0  0  0  0  0  0  0  0  0  0
   -0.8447   -1.2696   30.0691 C   0  0  0  0  0  0  0  0  0  0  0  0
    0.2801   -2.0285   29.3740 C   0  0  0  0  0  0  0  0  0  0  0  0
    2.7875   -0.5372   26.8050 N   0  0  0  0  0  0  0  0  0  0  0  0
    4.2380   -2.5713   23.4587 H   0  0  0  0  0  0  0  0  0  0  0  0
    5.6727   -3.2405   20.6178 H   0  0  0  0  0  0  0  0  0  0  0  0
    6.4439   -0.5474   17.6652 H   0  0  0  0  0  0  0  0  0  0  0  0
    7.0892    1.7654   17.3335 H   0  0  0  0  0  0  0  0  0  0  0  0
    7.4275    3.0195   19.2467 H   0  0  0  0  0  0  0  0  0  0  0  0
    7.3775    2.0600   21.7133 H   0  0  0  0  0  0  0  0  0  0  0  0
    3.3573   -3.4336   25.4722 H   0  0  0  0  0  0  0  0  0  0  0  0
    1.8637   -3.5199   27.7937 H   0  0  0  0  0  0  0  0  0  0  0  0
    1.7597   -0.4437   29.3703 H   0  0  0  0  0  0  0  0  0  0  0  0
    0.3346    1.0899   28.4217 H   0  0  0  0  0  0  0  0  0  0  0  0
   -0.2049    0.0187   27.1364 H   0  0  0  0  0  0  0  0  0  0  0  0
   -1.7291    0.6224   29.4403 H   0  0  0  0  0  0  0  0  0  0  0  0
   -2.0058   -0.7309   28.3351 H   0  0  0  0  0  0  0  0  0  0  0  0
   -0.4586   -0.7458   30.9509 H   0  0  0  0  0  0  0  0  0  0  0  0
   -1.6622   -1.9244   30.3830 H   0  0  0  0  0  0  0  0  0  0  0  0
    0.8955   -2.5891   30.0847 H   0  0  0  0  0  0  0  0  0  0  0  0
   -0.1509   -2.7411   28.6597 H   0  0  0  0  0  0  0  0  0  0  0  0
  1  2  2  0
  2  3  1  0
  3  4  1  0
  4  5  2  0
  5  6  1  0
  6  7  2  0
  7  8  1  0
  8  9  2  0
  9 10  1  0
 10 11  2  0
 11 12  1  0
  2 13  1  0
 13 14  1  0
 14 15  2  0
 15 16  1  0
 16 17  1  0
 17 18  1  0
 18 19  1  0
 19 20  1  0
 20 21  1  0
 16 22  1  0
 12  4  1  0
 22 13  2  0
 12  7  1  0
 21 17  1  0
  3 23  1  0
  5 24  1  0
  8 25  1  0
  9 26  1  0
 10 27  1  0
 11 28  1  0
 14 29  1  0
 15 30  1  0
 17 31  1  0
 18 32  1  0
 18 33  1  0
 19 34  1  0
 19 35  1  0
 20 36  1  0
 20 37  1  0
 21 38  1  0
 21 39  1  0
M  END
>  <Energy>  (444) 
516.76539829911792

>  <compound_id>  (444) 
55948

>  <target_id>  (444) 
1

>  <reference_id>  (444) 
103

>  <inspiration_ids>  (444) 
[7, 103]

>  <energy_score>  (444) 
365.19313487731466

>  <distance_score>  (444) 
13.548480195032148

>  <path>  (444) 
/opt/xchem-fragalysis-2/maxwin/BulkDock/SCRATCH/511024/C55948-P103/C55948-P103.minimised.mol

>  <scratch_subdir>  (444) 
/opt/xchem-fragalysis-2/maxwin/BulkDock/SCRATCH/511024/C55948-P103

>  <fragmenstein_runtime>  (444) 
17.192894220352173

>  <fragmenstein_outcome>  (444) 
too moved

>  <fragmenstein_mode>  (444) 
expansion

>  <fragmenstein_error>  (444) 


$$$$
C55950-P7
     RDKit          3D

 42 45  0  0  0  0  0  0  0  0999 V2000
   -1.7197    3.5432   23.4088 O   0  0  0  0  0  0  0  0  0  0  0  0
   -0.9563    3.0996   24.2152 C   0  0  0  0  0  0  0  0  0  0  0  0
    0.4977    2.9187   24.1527 N   0  0  0  0  0  0  0  0  0  0  0  0
    1.4774    3.3157   23.1210 C   0  0  0  0  0  0  0  0  0  0  0  0
    2.7467    2.4788   22.8916 C   0  0  0  0  0  0  0  0  0  0  0  0
    3.3536    1.4583   23.6068 C   0  0  0  0  0  0  0  0  0  0  0  0
    4.4110    0.9970   22.8442 N   0  0  0  0  0  0  0  0  0  0  0  0
    5.2411   -0.1138   23.0277 C   0  0  0  0  0  0  0  0  0  0  0  0
    6.1974   -0.3849   22.1223 C   0  0  0  0  0  0  0  0  0  0  0  0
    6.3609    0.5208   21.0003 C   0  0  0  0  0  0  0  0  0  0  0  0
    5.5857    1.6156   20.8525 C   0  0  0  0  0  0  0  0  0  0  0  0
    4.5181    1.8579   21.7635 C   0  0  0  0  0  0  0  0  0  0  0  0
    3.5426    2.7467   21.7670 N   0  0  0  0  0  0  0  0  0  0  0  0
   -1.5790    2.6317   25.4949 C   0  0  0  0  0  0  0  0  0  0  0  0
   -0.9916    2.2565   26.7051 C   0  0  0  0  0  0  0  0  0  0  0  0
   -1.9917    1.6340   27.4612 C   0  0  0  0  0  0  0  0  0  0  0  0
   -3.1418    1.6108   26.8029 N   0  0  0  0  0  0  0  0  0  0  0  0
   -2.9618    2.4845   25.7818 N   0  0  0  0  0  0  0  0  0  0  0  0
   -4.1705    3.0600   25.1704 C   0  0  0  0  0  0  0  0  0  0  0  0
   -5.1124    2.0958   24.4107 C   0  0  0  0  0  0  0  0  0  0  0  0
   -6.5682    2.5185   24.6891 C   0  0  0  0  0  0  0  0  0  0  0  0
   -6.4778    3.7835   25.5150 C   0  0  0  0  0  0  0  0  0  0  0  0
   -5.1364    3.6477   26.2015 C   0  0  0  0  0  0  0  0  0  0  0  0
    0.8281    2.5923   25.0458 H   0  0  0  0  0  0  0  0  0  0  0  0
    1.7925    4.3315   23.3856 H   0  0  0  0  0  0  0  0  0  0  0  0
    0.9295    3.3839   22.1744 H   0  0  0  0  0  0  0  0  0  0  0  0
    3.0986    0.9774   24.5391 H   0  0  0  0  0  0  0  0  0  0  0  0
    5.0521   -0.7330   23.8963 H   0  0  0  0  0  0  0  0  0  0  0  0
    6.8471   -1.2474   22.2201 H   0  0  0  0  0  0  0  0  0  0  0  0
    7.1421    0.2829   20.2938 H   0  0  0  0  0  0  0  0  0  0  0  0
    5.7203    2.3301   20.0507 H   0  0  0  0  0  0  0  0  0  0  0  0
    0.0504    2.3336   26.9788 H   0  0  0  0  0  0  0  0  0  0  0  0
   -1.9161    1.1515   28.4264 H   0  0  0  0  0  0  0  0  0  0  0  0
   -3.8471    3.8626   24.5005 H   0  0  0  0  0  0  0  0  0  0  0  0
   -5.0053    1.0625   24.7429 H   0  0  0  0  0  0  0  0  0  0  0  0
   -4.9041    2.1249   23.3357 H   0  0  0  0  0  0  0  0  0  0  0  0
   -7.1014    1.7373   25.2369 H   0  0  0  0  0  0  0  0  0  0  0  0
   -7.1193    2.6879   23.7583 H   0  0  0  0  0  0  0  0  0  0  0  0
   -6.4771    4.6621   24.8597 H   0  0  0  0  0  0  0  0  0  0  0  0
   -7.3067    3.8840   26.2214 H   0  0  0  0  0  0  0  0  0  0  0  0
   -4.7782    4.5966   26.6093 H   0  0  0  0  0  0  0  0  0  0  0  0
   -5.2629    2.9143   26.9868 H   0  0  0  0  0  0  0  0  0  0  0  0
  1  2  2  0
  2  3  1  0
  3  4  1  0
  4  5  1  0
  5  6  2  0
  6  7  1  0
  7  8  1  0
  8  9  2  0
  9 10  1  0
 10 11  2  0
 11 12  1  0
 12 13  2  0
  2 14  1  0
 14 15  2  0
 15 16  1  0
 16 17  2  0
 17 18  1  0
 18 19  1  0
 19 20  1  0
 20 21  1  0
 21 22  1  0
 22 23  1  0
 13  5  1  0
 18 14  1  0
 23 19  1  0
 12  7  1  0
  3 24  1  0
  4 25  1  0
  4 26  1  0
  6 27  1  0
  8 28  1  0
  9 29  1  0
 10 30  1  0
 11 31  1  0
 15 32  1  0
 16 33  1  0
 19 34  1  0
 20 35  1  0
 20 36  1  0
 21 37  1  0
 21 38  1  0
 22 39  1  0
 22 40  1  0
 23 41  1  0
 23 42  1  0
M  END
>  <Energy>  (445) 
23.639057446090145

>  <compound_id>  (445) 
55950

>  <target_id>  (445) 
1

>  <reference_id>  (445) 
7

>  <inspiration_ids>  (445) 
[7, 103]

>  <energy_score>  (445) 
-14.818350384282652

>  <distance_score>  (445) 
13.558814440270368

>  <path>  (445) 
/opt/xchem-fragalysis-2/maxwin/BulkDock/SCRATCH/511024/C55950-P7/C55950-P7.minimised.mol

>  <scratch_subdir>  (445) 
/opt/xchem-fragalysis-2/maxwin/BulkDock/SCRATCH/511024/C55950-P7

>  <fragmenstein_runtime>  (445) 
14.679256677627563

>  <fragmenstein_outcome>  (445) 
too moved

>  <fragmenstein_mode>  (445) 
expansion

>  <fragmenstein_error>  (445) 


$$$$
C55950-P103
     RDKit          3D

 42 45  0  0  0  0  0  0  0  0999 V2000
    4.8251   -1.4796   24.3666 O   0  0  0  0  0  0  0  0  0  0  0  0
    4.7249   -0.3639   23.9338 C   0  0  0  0  0  0  0  0  0  0  0  0
    5.3227    0.2662   22.6709 N   0  0  0  0  0  0  0  0  0  0  0  0
    6.3141   -0.3088   21.6288 C   0  0  0  0  0  0  0  0  0  0  0  0
    6.9166    0.4307   20.3106 C   0  0  0  0  0  0  0  0  0  0  0  0
    7.0166    1.7590   19.8739 C   0  0  0  0  0  0  0  0  0  0  0  0
    7.8325    1.8192   18.4211 N   0  0  0  0  0  0  0  0  0  0  0  0
    8.1502    2.8585   17.4899 C   0  0  0  0  0  0  0  0  0  0  0  0
    8.8312    2.5537   16.3715 C   0  0  0  0  0  0  0  0  0  0  0  0
    9.1005    1.1730   16.0124 C   0  0  0  0  0  0  0  0  0  0  0  0
    8.6376    0.1270   16.7174 C   0  0  0  0  0  0  0  0  0  0  0  0
    8.0339    0.3272   18.0146 C   0  0  0  0  0  0  0  0  0  0  0  0
    7.4618   -0.3861   19.1233 N   0  0  0  0  0  0  0  0  0  0  0  0
    3.8359    0.5516   24.8289 C   0  0  0  0  0  0  0  0  0  0  0  0
    3.4613    1.8746   24.5841 C   0  0  0  0  0  0  0  0  0  0  0  0
    2.7386    2.3434   25.6913 C   0  0  0  0  0  0  0  0  0  0  0  0
    2.6123    1.4256   26.6301 N   0  0  0  0  0  0  0  0  0  0  0  0
    3.1382    0.2794   26.0934 N   0  0  0  0  0  0  0  0  0  0  0  0
    2.7434   -0.9377   26.8446 C   0  0  0  0  0  0  0  0  0  0  0  0
    1.3926   -0.8064   27.6330 C   0  0  0  0  0  0  0  0  0  0  0  0
    1.3309   -2.0034   28.5662 C   0  0  0  0  0  0  0  0  0  0  0  0
    2.7681   -2.1308   29.0354 C   0  0  0  0  0  0  0  0  0  0  0  0
    3.6366   -1.3212   28.0389 C   0  0  0  0  0  0  0  0  0  0  0  0
    5.1038    1.2492   22.6536 H   0  0  0  0  0  0  0  0  0  0  0  0
    5.8396   -1.2298   21.2694 H   0  0  0  0  0  0  0  0  0  0  0  0
    7.1882   -0.6144   22.2167 H   0  0  0  0  0  0  0  0  0  0  0  0
    6.6190    2.7133   20.1937 H   0  0  0  0  0  0  0  0  0  0  0  0
    7.8700    3.8714   17.7455 H   0  0  0  0  0  0  0  0  0  0  0  0
    9.1288    3.3262   15.6680 H   0  0  0  0  0  0  0  0  0  0  0  0
    9.5737    0.9915   15.0487 H   0  0  0  0  0  0  0  0  0  0  0  0
    8.7154   -0.8602   16.2733 H   0  0  0  0  0  0  0  0  0  0  0  0
    3.7129    2.4600   23.7130 H   0  0  0  0  0  0  0  0  0  0  0  0
    2.3244    3.3296   25.8581 H   0  0  0  0  0  0  0  0  0  0  0  0
    2.7207   -1.7585   26.1281 H   0  0  0  0  0  0  0  0  0  0  0  0
    0.4960   -0.7620   27.0283 H   0  0  0  0  0  0  0  0  0  0  0  0
    1.3844    0.1004   28.2533 H   0  0  0  0  0  0  0  0  0  0  0  0
    0.6305   -1.8579   29.3934 H   0  0  0  0  0  0  0  0  0  0  0  0
    1.0317   -2.9015   28.0154 H   0  0  0  0  0  0  0  0  0  0  0  0
    2.8916   -1.7268   30.0463 H   0  0  0  0  0  0  0  0  0  0  0  0
    3.0770   -3.1812   29.0623 H   0  0  0  0  0  0  0  0  0  0  0  0
    4.5078   -1.8991   27.7118 H   0  0  0  0  0  0  0  0  0  0  0  0
    4.0223   -0.4239   28.5393 H   0  0  0  0  0  0  0  0  0  0  0  0
  1  2  2  0
  2  3  1  0
  3  4  1  0
  4  5  1  0
  5  6  2  0
  6  7  1  0
  7  8  1  0
  8  9  2  0
  9 10  1  0
 10 11  2  0
 11 12  1  0
 12 13  2  0
  2 14  1  0
 14 15  2  0
 15 16  1  0
 16 17  2  0
 17 18  1  0
 18 19  1  0
 19 20  1  0
 20 21  1  0
 21 22  1  0
 22 23  1  0
 13  5  1  0
 18 14  1  0
 23 19  1  0
 12  7  1  0
  3 24  1  0
  4 25  1  0
  4 26  1  0
  6 27  1  0
  8 28  1  0
  9 29  1  0
 10 30  1  0
 11 31  1  0
 15 32  1  0
 16 33  1  0
 19 34  1  0
 20 35  1  0
 20 36  1  0
 21 37  1  0
 21 38  1  0
 22 39  1  0
 22 40  1  0
 23 41  1  0
 23 42  1  0
M  END
>  <Energy>  (446) 
110.52498266625513

>  <compound_id>  (446) 
55950

>  <target_id>  (446) 
1

>  <reference_id>  (446) 
103

>  <inspiration_ids>  (446) 
[7, 103]

>  <energy_score>  (446) 
72.0675748358859

>  <distance_score>  (446) 
14.081724253904236

>  <path>  (446) 
/opt/xchem-fragalysis-2/maxwin/BulkDock/SCRATCH/511024/C55950-P103/C55950-P103.minimised.mol

>  <scratch_subdir>  (446) 
/opt/xchem-fragalysis-2/maxwin/BulkDock/SCRATCH/511024/C55950-P103

>  <fragmenstein_runtime>  (446) 
12.517513036727905

>  <fragmenstein_outcome>  (446) 
too moved

>  <fragmenstein_mode>  (446) 
expansion

>  <fragmenstein_error>  (446) 


$$$$
C55951-P7
     RDKit          3D

 39 42  0  0  0  0  0  0  0  0999 V2000
    0.1279   -4.8918   20.4215 O   0  0  0  0  0  0  0  0  0  0  0  0
    1.0432   -4.4156   21.0485 C   0  0  0  0  0  0  0  0  0  0  0  0
    2.3358   -4.6100   20.2838 C   0  0  0  0  0  0  0  0  0  0  0  0
    2.4149   -4.1440   18.7664 C   0  0  0  0  0  0  0  0  0  0  0  0
    1.9842   -2.9436   18.1867 C   0  0  0  0  0  0  0  0  0  0  0  0
    2.5709   -2.8773   16.9706 N   0  0  0  0  0  0  0  0  0  0  0  0
    2.7048   -1.9340   15.9796 C   0  0  0  0  0  0  0  0  0  0  0  0
    3.4194   -2.4117   14.9489 C   0  0  0  0  0  0  0  0  0  0  0  0
    3.8548   -4.1136   15.1758 S   0  0  0  0  0  0  0  0  0  0  0  0
    3.1800   -4.0704   16.7694 C   0  0  0  0  0  0  0  0  0  0  0  0
    3.2057   -4.8380   17.8328 N   0  0  0  0  0  0  0  0  0  0  0  0
    1.0539   -3.7094   22.5398 N   0  0  0  0  0  0  0  0  0  0  0  0
   -0.2787   -3.5251   23.7718 C   0  0  0  0  0  0  0  0  0  0  0  0
    0.3204   -2.7518   26.0119 C   0  0  0  0  0  0  0  0  0  0  0  0
    0.3395   -3.9529   27.0192 N   0  0  0  0  0  0  0  0  0  0  0  0
   -0.1614   -5.4222   26.2528 N   0  0  0  0  0  0  0  0  0  0  0  0
   -0.1650   -6.3084   27.4228 C   0  0  0  0  0  0  0  0  0  0  0  0
    0.1885   -5.4811   28.9060 C   0  0  0  0  0  0  0  0  0  0  0  0
   -0.2949   -6.3168   30.0546 C   0  0  0  0  0  0  0  0  0  0  0  0
   -1.1854   -7.2812   29.3163 C   0  0  0  0  0  0  0  0  0  0  0  0
   -1.4735   -6.6507   27.9323 C   0  0  0  0  0  0  0  0  0  0  0  0
   -0.5909   -5.3304   24.4156 C   0  0  0  0  0  0  0  0  0  0  0  0
    2.3212   -5.6894   20.1083 H   0  0  0  0  0  0  0  0  0  0  0  0
    3.2102   -4.3515   20.8390 H   0  0  0  0  0  0  0  0  0  0  0  0
    1.4375   -2.0978   18.5721 H   0  0  0  0  0  0  0  0  0  0  0  0
    2.2899   -0.9456   16.0990 H   0  0  0  0  0  0  0  0  0  0  0  0
    3.6903   -1.8686   14.0534 H   0  0  0  0  0  0  0  0  0  0  0  0
    1.9779   -3.3393   22.7381 H   0  0  0  0  0  0  0  0  0  0  0  0
   -0.1804   -2.9316   24.2112 H   0  0  0  0  0  0  0  0  0  0  0  0
    0.3833   -7.2249   27.2535 H   0  0  0  0  0  0  0  0  0  0  0  0
   -0.4241   -4.5650   28.9699 H   0  0  0  0  0  0  0  0  0  0  0  0
    1.2001   -5.1059   29.0806 H   0  0  0  0  0  0  0  0  0  0  0  0
   -0.8318   -5.6973   30.7826 H   0  0  0  0  0  0  0  0  0  0  0  0
    0.4855   -6.7897   30.6428 H   0  0  0  0  0  0  0  0  0  0  0  0
   -2.0536   -7.3658   29.9539 H   0  0  0  0  0  0  0  0  0  0  0  0
   -0.6894   -8.2506   29.2077 H   0  0  0  0  0  0  0  0  0  0  0  0
   -1.8658   -5.6729   28.0763 H   0  0  0  0  0  0  0  0  0  0  0  0
   -2.0944   -7.0562   27.1547 H   0  0  0  0  0  0  0  0  0  0  0  0
   -0.1552   -6.2481   24.0195 H   0  0  0  0  0  0  0  0  0  0  0  0
  1  2  2  0
  2  3  1  0
  3  4  1  0
  4  5  2  0
  5  6  1  0
  6  7  1  0
  7  8  2  0
  8  9  1  0
  9 10  1  0
 10 11  2  0
  2 12  1  0
 12 13  1  0
 13 14  1  0
 14 15  2  0
 15 16  1  0
 16 17  1  0
 17 18  1  0
 18 19  1  0
 19 20  1  0
 20 21  1  0
 16 22  1  0
 11  4  1  0
 22 13  2  0
 10  6  1  0
 21 17  1  0
  3 23  1  0
  3 24  1  0
  5 25  1  0
  7 26  1  0
  8 27  1  0
 12 28  1  0
 14 29  1  0
 17 30  1  0
 18 31  1  0
 18 32  1  0
 19 33  1  0
 19 34  1  0
 20 35  1  0
 20 36  1  0
 21 37  1  0
 21 38  1  0
 22 39  1  0
M  END
>  <Energy>  (447) 
1335.2842930380646

>  <compound_id>  (447) 
55951

>  <target_id>  (447) 
1

>  <reference_id>  (447) 
7

>  <inspiration_ids>  (447) 
[7, 103]

>  <energy_score>  (447) 
1216.9976394627176

>  <distance_score>  (447) 
13.314556839744577

>  <path>  (447) 
/opt/xchem-fragalysis-2/maxwin/BulkDock/SCRATCH/511024/C55951-P7/C55951-P7.minimised.mol

>  <scratch_subdir>  (447) 
/opt/xchem-fragalysis-2/maxwin/BulkDock/SCRATCH/511024/C55951-P7

>  <fragmenstein_runtime>  (447) 
11.233466625213623

>  <fragmenstein_outcome>  (447) 
too moved

>  <fragmenstein_mode>  (447) 
expansion

>  <fragmenstein_error>  (447) 


$$$$
C55951-P103
     RDKit          3D

 39 42  0  0  0  0  0  0  0  0999 V2000
    2.9086   -0.1223   15.1112 O   0  0  0  0  0  0  0  0  0  0  0  0
    3.0792   -1.2641   15.4347 C   0  0  0  0  0  0  0  0  0  0  0  0
    3.7040   -2.2539   14.4486 C   0  0  0  0  0  0  0  0  0  0  0  0
    4.2271   -1.6417   13.1896 C   0  0  0  0  0  0  0  0  0  0  0  0
    3.9185   -0.4427   12.5521 C   0  0  0  0  0  0  0  0  0  0  0  0
    4.7683   -0.3759   11.4961 N   0  0  0  0  0  0  0  0  0  0  0  0
    5.0763    0.5281   10.5089 C   0  0  0  0  0  0  0  0  0  0  0  0
    5.9614    0.0101    9.6420 C   0  0  0  0  0  0  0  0  0  0  0  0
    6.3515   -1.6839    9.9946 S   0  0  0  0  0  0  0  0  0  0  0  0
    5.4123   -1.5662   11.4392 C   0  0  0  0  0  0  0  0  0  0  0  0
    5.1299   -2.3616   12.4322 N   0  0  0  0  0  0  0  0  0  0  0  0
    2.7012   -1.9694   16.6394 N   0  0  0  0  0  0  0  0  0  0  0  0
    1.9665   -1.5686   17.7120 C   0  0  0  0  0  0  0  0  0  0  0  0
    1.3131   -0.3650   17.8086 C   0  0  0  0  0  0  0  0  0  0  0  0
    0.2229   -0.5883   18.5201 N   0  0  0  0  0  0  0  0  0  0  0  0
    0.6519   -1.1357   19.8508 N   0  0  0  0  0  0  0  0  0  0  0  0
   -0.2616   -1.9947   21.5256 C   0  0  0  0  0  0  0  0  0  0  0  0
   -1.2235   -2.2951   23.0343 C   0  0  0  0  0  0  0  0  0  0  0  0
   -3.0020   -2.7006   23.6386 C   0  0  0  0  0  0  0  0  0  0  0  0
   -3.5324   -2.6729   22.1900 C   0  0  0  0  0  0  0  0  0  0  0  0
   -2.2758   -1.7794   22.0566 C   0  0  0  0  0  0  0  0  0  0  0  0
    1.5280   -2.2456   18.8143 C   0  0  0  0  0  0  0  0  0  0  0  0
    4.5258   -2.7757   14.9499 H   0  0  0  0  0  0  0  0  0  0  0  0
    2.9408   -2.9950   14.1825 H   0  0  0  0  0  0  0  0  0  0  0  0
    3.2307    0.3570   12.7870 H   0  0  0  0  0  0  0  0  0  0  0  0
    4.6421    1.5141   10.5003 H   0  0  0  0  0  0  0  0  0  0  0  0
    6.3869    0.5167    8.7871 H   0  0  0  0  0  0  0  0  0  0  0  0
    2.9345   -2.9485   16.5362 H   0  0  0  0  0  0  0  0  0  0  0  0
    1.3495    0.4967   17.1583 H   0  0  0  0  0  0  0  0  0  0  0  0
    0.3693   -2.9440   21.5563 H   0  0  0  0  0  0  0  0  0  0  0  0
   -1.2144   -1.3538   23.5699 H   0  0  0  0  0  0  0  0  0  0  0  0
   -0.5719   -3.0482   23.3824 H   0  0  0  0  0  0  0  0  0  0  0  0
   -3.4162   -2.0143   24.3653 H   0  0  0  0  0  0  0  0  0  0  0  0
   -2.9809   -3.6401   24.2057 H   0  0  0  0  0  0  0  0  0  0  0  0
   -4.3427   -2.1998   21.5827 H   0  0  0  0  0  0  0  0  0  0  0  0
   -3.9167   -3.6658   21.9565 H   0  0  0  0  0  0  0  0  0  0  0  0
   -2.6468   -0.6921   21.8325 H   0  0  0  0  0  0  0  0  0  0  0  0
   -2.5638   -1.1367   22.8288 H   0  0  0  0  0  0  0  0  0  0  0  0
    1.5026   -3.2583   19.1991 H   0  0  0  0  0  0  0  0  0  0  0  0
  1  2  2  0
  2  3  1  0
  3  4  1  0
  4  5  2  0
  5  6  1  0
  6  7  1  0
  7  8  2  0
  8  9  1  0
  9 10  1  0
 10 11  2  0
  2 12  1  0
 12 13  1  0
 13 14  1  0
 14 15  2  0
 15 16  1  0
 16 17  1  0
 17 18  1  0
 18 19  1  0
 19 20  1  0
 20 21  1  0
 16 22  1  0
 11  4  1  0
 22 13  2  0
 10  6  1  0
 21 17  1  0
  3 23  1  0
  3 24  1  0
  5 25  1  0
  7 26  1  0
  8 27  1  0
 12 28  1  0
 14 29  1  0
 17 30  1  0
 18 31  1  0
 18 32  1  0
 19 33  1  0
 19 34  1  0
 20 35  1  0
 20 36  1  0
 21 37  1  0
 21 38  1  0
 22 39  1  0
M  END
>  <Energy>  (448) 
791.95132520402444

>  <compound_id>  (448) 
55951

>  <target_id>  (448) 
1

>  <reference_id>  (448) 
103

>  <inspiration_ids>  (448) 
[7, 103]

>  <energy_score>  (448) 
673.6646716286602

>  <distance_score>  (448) 
13.0903238080798

>  <path>  (448) 
/opt/xchem-fragalysis-2/maxwin/BulkDock/SCRATCH/511024/C55951-P103/C55951-P103.minimised.mol

>  <scratch_subdir>  (448) 
/opt/xchem-fragalysis-2/maxwin/BulkDock/SCRATCH/511024/C55951-P103

>  <fragmenstein_runtime>  (448) 
14.097578525543213

>  <fragmenstein_outcome>  (448) 
too moved

>  <fragmenstein_mode>  (448) 
expansion

>  <fragmenstein_error>  (448) 


$$$$
C55952-P7
     RDKit          3D

 41 44  0  0  0  0  0  0  0  0999 V2000
    1.2714   -3.2052   28.2066 O   0  0  0  0  0  0  0  0  0  0  0  0
    1.5799   -2.0318   27.9905 C   0  0  0  0  0  0  0  0  0  0  0  0
    0.8598   -0.9998   28.5868 O   0  0  0  0  0  0  0  0  0  0  0  0
   -0.5913   -1.2384   28.8744 C   0  0  0  0  0  0  0  0  0  0  0  0
   -1.1253   -1.6581   30.2833 C   0  0  0  0  0  0  0  0  0  0  0  0
   -0.8557   -2.8878   30.9392 C   0  0  0  0  0  0  0  0  0  0  0  0
   -1.7057   -2.9563   32.0175 C   0  0  0  0  0  0  0  0  0  0  0  0
   -2.4486   -1.8101   32.0012 N   0  0  0  0  0  0  0  0  0  0  0  0
   -3.4286   -1.4817   33.0318 C   0  0  0  0  0  0  0  0  0  0  0  0
   -4.7454   -2.2805   32.9609 C   0  0  0  0  0  0  0  0  0  0  0  0
   -5.8257   -1.3983   33.6005 C   0  0  0  0  0  0  0  0  0  0  0  0
   -5.1256   -0.1167   34.0244 C   0  0  0  0  0  0  0  0  0  0  0  0
   -3.8900   -0.0325   33.1294 C   0  0  0  0  0  0  0  0  0  0  0  0
   -2.1097   -0.9913   30.9578 N   0  0  0  0  0  0  0  0  0  0  0  0
    2.7558   -1.6887   27.0673 C   0  0  0  0  0  0  0  0  0  0  0  0
    3.6610   -2.6384   26.5759 C   0  0  0  0  0  0  0  0  0  0  0  0
    4.4284   -2.0417   25.5999 N   0  0  0  0  0  0  0  0  0  0  0  0
    5.4157   -2.5930   24.7683 C   0  0  0  0  0  0  0  0  0  0  0  0
    6.0259   -1.8190   23.8526 C   0  0  0  0  0  0  0  0  0  0  0  0
    5.6349   -0.4210   23.7588 C   0  0  0  0  0  0  0  0  0  0  0  0
    4.6903    0.1046   24.5708 C   0  0  0  0  0  0  0  0  0  0  0  0
    4.0320   -0.7114   25.5515 C   0  0  0  0  0  0  0  0  0  0  0  0
    3.0727   -0.4611   26.4429 N   0  0  0  0  0  0  0  0  0  0  0  0
   -0.9624   -1.9758   28.1524 H   0  0  0  0  0  0  0  0  0  0  0  0
   -1.0761   -0.2888   28.6167 H   0  0  0  0  0  0  0  0  0  0  0  0
   -0.1538   -3.6478   30.6216 H   0  0  0  0  0  0  0  0  0  0  0  0
   -1.8406   -3.7167   32.7738 H   0  0  0  0  0  0  0  0  0  0  0  0
   -2.9340   -1.7309   33.9826 H   0  0  0  0  0  0  0  0  0  0  0  0
   -5.0154   -2.5169   31.9261 H   0  0  0  0  0  0  0  0  0  0  0  0
   -4.6487   -3.2348   33.4906 H   0  0  0  0  0  0  0  0  0  0  0  0
   -6.6106   -1.1824   32.8668 H   0  0  0  0  0  0  0  0  0  0  0  0
   -6.2971   -1.8792   34.4616 H   0  0  0  0  0  0  0  0  0  0  0  0
   -5.7696    0.7618   33.9235 H   0  0  0  0  0  0  0  0  0  0  0  0
   -4.8175   -0.1905   35.0743 H   0  0  0  0  0  0  0  0  0  0  0  0
   -4.1611    0.3531   32.1470 H   0  0  0  0  0  0  0  0  0  0  0  0
   -3.1218    0.6241   33.5494 H   0  0  0  0  0  0  0  0  0  0  0  0
    3.7407   -3.6954   26.7820 H   0  0  0  0  0  0  0  0  0  0  0  0
    5.6388   -3.6435   24.9023 H   0  0  0  0  0  0  0  0  0  0  0  0
    6.7916   -2.2061   23.1909 H   0  0  0  0  0  0  0  0  0  0  0  0
    6.1289    0.1985   23.0176 H   0  0  0  0  0  0  0  0  0  0  0  0
    4.3985    1.1462   24.5031 H   0  0  0  0  0  0  0  0  0  0  0  0
  1  2  2  0
  2  3  1  0
  3  4  1  0
  4  5  1  0
  5  6  1  0
  6  7  2  0
  7  8  1  0
  8  9  1  0
  9 10  1  0
 10 11  1  0
 11 12  1  0
 12 13  1  0
  8 14  1  0
  2 15  1  0
 15 16  2  0
 16 17  1  0
 17 18  1  0
 18 19  2  0
 19 20  1  0
 20 21  2  0
 21 22  1  0
 22 23  2  0
 14  5  2  0
 23 15  1  0
 13  9  1  0
 22 17  1  0
  4 24  1  0
  4 25  1  0
  6 26  1  0
  7 27  1  0
  9 28  1  0
 10 29  1  0
 10 30  1  0
 11 31  1  0
 11 32  1  0
 12 33  1  0
 12 34  1  0
 13 35  1  0
 13 36  1  0
 16 37  1  0
 18 38  1  0
 19 39  1  0
 20 40  1  0
 21 41  1  0
M  END
>  <Energy>  (449) 
93.611986792897568

>  <compound_id>  (449) 
55952

>  <target_id>  (449) 
1

>  <reference_id>  (449) 
7

>  <inspiration_ids>  (449) 
[7, 103]

>  <energy_score>  (449) 
-20.365137419382165

>  <distance_score>  (449) 
12.833660740219894

>  <path>  (449) 
/opt/xchem-fragalysis-2/maxwin/BulkDock/SCRATCH/511024/C55952-P7/C55952-P7.minimised.mol

>  <scratch_subdir>  (449) 
/opt/xchem-fragalysis-2/maxwin/BulkDock/SCRATCH/511024/C55952-P7

>  <fragmenstein_runtime>  (449) 
7.3633904457092285

>  <fragmenstein_outcome>  (449) 
too moved

>  <fragmenstein_mode>  (449) 
expansion

>  <fragmenstein_error>  (449) 


$$$$
C55952-P103
     RDKit          3D

 41 44  0  0  0  0  0  0  0  0999 V2000
    8.6435   -0.2271   25.0182 O   0  0  0  0  0  0  0  0  0  0  0  0
    7.9948   -0.2241   23.9697 C   0  0  0  0  0  0  0  0  0  0  0  0
    6.5470   -0.3255   24.0664 O   0  0  0  0  0  0  0  0  0  0  0  0
    6.0161   -0.6438   25.5190 C   0  0  0  0  0  0  0  0  0  0  0  0
    4.4717   -0.4600   26.1131 C   0  0  0  0  0  0  0  0  0  0  0  0
    3.6083    0.6793   26.0585 C   0  0  0  0  0  0  0  0  0  0  0  0
    2.5709    0.4605   26.9524 C   0  0  0  0  0  0  0  0  0  0  0  0
    2.7569   -0.7878   27.4812 N   0  0  0  0  0  0  0  0  0  0  0  0
    1.9435   -1.4305   28.5336 C   0  0  0  0  0  0  0  0  0  0  0  0
    0.4318   -1.6093   28.2652 C   0  0  0  0  0  0  0  0  0  0  0  0
   -0.1982   -1.8065   29.6431 C   0  0  0  0  0  0  0  0  0  0  0  0
    0.5440   -0.8003   30.5012 C   0  0  0  0  0  0  0  0  0  0  0  0
    1.9667   -0.7050   29.8998 C   0  0  0  0  0  0  0  0  0  0  0  0
    3.9479   -1.3351   27.0345 N   0  0  0  0  0  0  0  0  0  0  0  0
    8.8542   -0.0963   22.5957 C   0  0  0  0  0  0  0  0  0  0  0  0
   10.2840    0.2909   22.6477 C   0  0  0  0  0  0  0  0  0  0  0  0
   11.0204    0.2171   21.2163 N   0  0  0  0  0  0  0  0  0  0  0  0
   12.8040   -0.0848   20.4278 C   0  0  0  0  0  0  0  0  0  0  0  0
   12.8606   -0.0787   18.6300 C   0  0  0  0  0  0  0  0  0  0  0  0
   11.2905   -0.4354   17.4149 C   0  0  0  0  0  0  0  0  0  0  0  0
    9.6737    0.0997   18.1384 C   0  0  0  0  0  0  0  0  0  0  0  0
    9.4450   -0.5215   20.1300 C   0  0  0  0  0  0  0  0  0  0  0  0
    8.3813   -0.4692   21.1082 N   0  0  0  0  0  0  0  0  0  0  0  0
    6.6201   -0.0293   26.1973 H   0  0  0  0  0  0  0  0  0  0  0  0
    6.2649   -1.7018   25.6642 H   0  0  0  0  0  0  0  0  0  0  0  0
    3.7715    1.5799   25.4839 H   0  0  0  0  0  0  0  0  0  0  0  0
    1.7378    1.0821   27.2463 H   0  0  0  0  0  0  0  0  0  0  0  0
    2.3831   -2.4287   28.6677 H   0  0  0  0  0  0  0  0  0  0  0  0
    0.0069   -0.7253   27.7772 H   0  0  0  0  0  0  0  0  0  0  0  0
    0.2495   -2.4796   27.6357 H   0  0  0  0  0  0  0  0  0  0  0  0
   -0.0067   -2.8246   30.0012 H   0  0  0  0  0  0  0  0  0  0  0  0
   -1.2790   -1.6400   29.6363 H   0  0  0  0  0  0  0  0  0  0  0  0
    0.5642   -1.0884   31.5564 H   0  0  0  0  0  0  0  0  0  0  0  0
    0.0581    0.1802   30.4318 H   0  0  0  0  0  0  0  0  0  0  0  0
    2.2665    0.3456   29.8180 H   0  0  0  0  0  0  0  0  0  0  0  0
    2.6909   -1.1918   30.5636 H   0  0  0  0  0  0  0  0  0  0  0  0
   10.9667    0.5109   23.4567 H   0  0  0  0  0  0  0  0  0  0  0  0
   13.6231    0.0620   21.1237 H   0  0  0  0  0  0  0  0  0  0  0  0
   13.8066   -0.0787   18.0888 H   0  0  0  0  0  0  0  0  0  0  0  0
   11.5105   -0.3015   16.3539 H   0  0  0  0  0  0  0  0  0  0  0  0
    8.7603    0.2410   17.5212 H   0  0  0  0  0  0  0  0  0  0  0  0
  1  2  2  0
  2  3  1  0
  3  4  1  0
  4  5  1  0
  5  6  1  0
  6  7  2  0
  7  8  1  0
  8  9  1  0
  9 10  1  0
 10 11  1  0
 11 12  1  0
 12 13  1  0
  8 14  1  0
  2 15  1  0
 15 16  2  0
 16 17  1  0
 17 18  1  0
 18 19  2  0
 19 20  1  0
 20 21  2  0
 21 22  1  0
 22 23  2  0
 14  5  2  0
 23 15  1  0
 13  9  1  0
 22 17  1  0
  4 24  1  0
  4 25  1  0
  6 26  1  0
  7 27  1  0
  9 28  1  0
 10 29  1  0
 10 30  1  0
 11 31  1  0
 11 32  1  0
 12 33  1  0
 12 34  1  0
 13 35  1  0
 13 36  1  0
 16 37  1  0
 18 38  1  0
 19 39  1  0
 20 40  1  0
 21 41  1  0
M  END
>  <Energy>  (450) 
840.87219867397368

>  <compound_id>  (450) 
55952

>  <target_id>  (450) 
1

>  <reference_id>  (450) 
103

>  <inspiration_ids>  (450) 
[7, 103]

>  <energy_score>  (450) 
726.8950744616925

>  <distance_score>  (450) 
13.08481808626904

>  <path>  (450) 
/opt/xchem-fragalysis-2/maxwin/BulkDock/SCRATCH/511024/C55952-P103/C55952-P103.minimised.mol

>  <scratch_subdir>  (450) 
/opt/xchem-fragalysis-2/maxwin/BulkDock/SCRATCH/511024/C55952-P103

>  <fragmenstein_runtime>  (450) 
8.895685911178589

>  <fragmenstein_outcome>  (450) 
too moved

>  <fragmenstein_mode>  (450) 
expansion

>  <fragmenstein_error>  (450) 


$$$$
C55954-P7
     RDKit          3D

 46 48  0  0  0  0  0  0  0  0999 V2000
   -7.0710   -1.0789   34.3629 C   0  0  0  0  0  0  0  0  0  0  0  0
   -5.7321   -0.5677   33.8399 C   0  0  0  0  0  0  0  0  0  0  0  0
   -4.8370   -1.6445   33.1875 C   0  0  0  0  0  0  0  0  0  0  0  0
   -3.6108   -1.1557   32.5211 N   0  0  0  0  0  0  0  0  0  0  0  0
   -2.9442    0.0209   32.7167 C   0  0  0  0  0  0  0  0  0  0  0  0
   -1.8839    0.0337   31.8240 C   0  0  0  0  0  0  0  0  0  0  0  0
   -1.9370   -1.1912   31.1136 C   0  0  0  0  0  0  0  0  0  0  0  0
   -1.0417   -1.8064   30.0011 C   0  0  0  0  0  0  0  0  0  0  0  0
    0.1435   -1.1753   29.3401 N   0  0  0  0  0  0  0  0  0  0  0  0
    1.5081   -1.7785   28.9315 C   0  0  0  0  0  0  0  0  0  0  0  0
    1.9290   -2.8533   29.1315 O   0  0  0  0  0  0  0  0  0  0  0  0
    2.1439   -0.6144   28.1664 N   0  0  0  0  0  0  0  0  0  0  0  0
    3.5229   -0.4751   27.5406 C   0  0  0  0  0  0  0  0  0  0  0  0
    3.7083   -0.3946   25.9718 C   0  0  0  0  0  0  0  0  0  0  0  0
    5.1296   -0.4242   25.3982 C   0  0  0  0  0  0  0  0  0  0  0  0
    6.0992   -1.4068   25.5028 C   0  0  0  0  0  0  0  0  0  0  0  0
    7.1940   -0.9641   24.7982 N   0  0  0  0  0  0  0  0  0  0  0  0
    8.4692   -1.5179   24.7036 C   0  0  0  0  0  0  0  0  0  0  0  0
    9.4315   -0.8345   24.0655 C   0  0  0  0  0  0  0  0  0  0  0  0
    9.0967    0.4353   23.4397 C   0  0  0  0  0  0  0  0  0  0  0  0
    7.8445    0.9347   23.4801 C   0  0  0  0  0  0  0  0  0  0  0  0
    6.8337    0.2474   24.2193 C   0  0  0  0  0  0  0  0  0  0  0  0
    5.5952    0.5770   24.5444 N   0  0  0  0  0  0  0  0  0  0  0  0
   -3.0019   -1.9133   31.5660 N   0  0  0  0  0  0  0  0  0  0  0  0
   -7.6197   -0.2656   34.8483 H   0  0  0  0  0  0  0  0  0  0  0  0
   -7.6828   -1.4488   33.5392 H   0  0  0  0  0  0  0  0  0  0  0  0
   -6.9310   -1.8746   35.0932 H   0  0  0  0  0  0  0  0  0  0  0  0
   -5.1871   -0.1066   34.6725 H   0  0  0  0  0  0  0  0  0  0  0  0
   -5.9259    0.2311   33.1141 H   0  0  0  0  0  0  0  0  0  0  0  0
   -5.4039   -2.1784   32.4166 H   0  0  0  0  0  0  0  0  0  0  0  0
   -4.4989   -2.3692   33.9364 H   0  0  0  0  0  0  0  0  0  0  0  0
   -3.2482    0.7361   33.4667 H   0  0  0  0  0  0  0  0  0  0  0  0
   -1.1436    0.8145   31.7184 H   0  0  0  0  0  0  0  0  0  0  0  0
   -1.7134   -2.0363   29.1646 H   0  0  0  0  0  0  0  0  0  0  0  0
   -0.6803   -2.7703   30.3809 H   0  0  0  0  0  0  0  0  0  0  0  0
    0.1222   -0.2039   29.0901 H   0  0  0  0  0  0  0  0  0  0  0  0
    1.4871    0.1422   28.1080 H   0  0  0  0  0  0  0  0  0  0  0  0
    4.0963   -1.3322   27.9116 H   0  0  0  0  0  0  0  0  0  0  0  0
    3.9570    0.4250   27.9901 H   0  0  0  0  0  0  0  0  0  0  0  0
    3.1622   -1.2305   25.5232 H   0  0  0  0  0  0  0  0  0  0  0  0
    3.2308    0.5300   25.6288 H   0  0  0  0  0  0  0  0  0  0  0  0
    6.1098   -2.3472   26.0352 H   0  0  0  0  0  0  0  0  0  0  0  0
    8.6455   -2.4589   25.2092 H   0  0  0  0  0  0  0  0  0  0  0  0
   10.4550   -1.1945   24.0351 H   0  0  0  0  0  0  0  0  0  0  0  0
    9.9040    0.9844   22.9649 H   0  0  0  0  0  0  0  0  0  0  0  0
    7.5947    1.8899   23.0337 H   0  0  0  0  0  0  0  0  0  0  0  0
  1  2  1  0
  2  3  1  0
  3  4  1  0
  4  5  1  0
  5  6  2  0
  6  7  1  0
  7  8  1  0
  8  9  1  0
  9 10  1  0
 10 11  2  0
 10 12  1  0
 12 13  1  0
 13 14  1  0
 14 15  1  0
 15 16  2  0
 16 17  1  0
 17 18  1  0
 18 19  2  0
 19 20  1  0
 20 21  2  0
 21 22  1  0
 22 23  2  0
  7 24  2  0
 24  4  1  0
 23 15  1  0
 22 17  1  0
  1 25  1  0
  1 26  1  0
  1 27  1  0
  2 28  1  0
  2 29  1  0
  3 30  1  0
  3 31  1  0
  5 32  1  0
  6 33  1  0
  8 34  1  0
  8 35  1  0
  9 36  1  0
 12 37  1  0
 13 38  1  0
 13 39  1  0
 14 40  1  0
 14 41  1  0
 16 42  1  0
 18 43  1  0
 19 44  1  0
 20 45  1  0
 21 46  1  0
M  END
>  <Energy>  (451) 
2.4374390513550472

>  <compound_id>  (451) 
55954

>  <target_id>  (451) 
1

>  <reference_id>  (451) 
7

>  <inspiration_ids>  (451) 
[7, 103]

>  <energy_score>  (451) 
15.406615995887428

>  <distance_score>  (451) 
10.74620204556739

>  <path>  (451) 
/opt/xchem-fragalysis-2/maxwin/BulkDock/SCRATCH/511024/C55954-P7/C55954-P7.minimised.mol

>  <scratch_subdir>  (451) 
/opt/xchem-fragalysis-2/maxwin/BulkDock/SCRATCH/511024/C55954-P7

>  <fragmenstein_runtime>  (451) 
8.575020551681519

>  <fragmenstein_outcome>  (451) 
too moved

>  <fragmenstein_mode>  (451) 
expansion

>  <fragmenstein_error>  (451) 


$$$$
C55954-P103
     RDKit          3D

 46 48  0  0  0  0  0  0  0  0999 V2000
   -2.2540   -1.2263   31.5958 C   0  0  0  0  0  0  0  0  0  0  0  0
   -1.9422    0.0335   30.7771 C   0  0  0  0  0  0  0  0  0  0  0  0
   -1.5248   -0.2002   29.2936 C   0  0  0  0  0  0  0  0  0  0  0  0
   -0.1164    0.0403   28.9053 N   0  0  0  0  0  0  0  0  0  0  0  0
    0.9752   -0.5747   29.4433 C   0  0  0  0  0  0  0  0  0  0  0  0
    2.0675   -0.1686   28.6952 C   0  0  0  0  0  0  0  0  0  0  0  0
    1.5916    0.6975   27.6663 C   0  0  0  0  0  0  0  0  0  0  0  0
    2.4510    1.6546   26.6816 C   0  0  0  0  0  0  0  0  0  0  0  0
    3.5524    1.2779   25.6462 N   0  0  0  0  0  0  0  0  0  0  0  0
    4.7954    2.1114   25.1088 C   0  0  0  0  0  0  0  0  0  0  0  0
    5.1702    3.1658   25.4605 O   0  0  0  0  0  0  0  0  0  0  0  0
    5.4121    1.1669   24.0258 N   0  0  0  0  0  0  0  0  0  0  0  0
    6.7436    1.2952   23.1843 C   0  0  0  0  0  0  0  0  0  0  0  0
    6.8252    1.7098   21.6148 C   0  0  0  0  0  0  0  0  0  0  0  0
    8.2515    1.7746   20.8350 C   0  0  0  0  0  0  0  0  0  0  0  0
    9.9725    2.4438   21.4393 C   0  0  0  0  0  0  0  0  0  0  0  0
   11.2533    2.2443   19.9782 N   0  0  0  0  0  0  0  0  0  0  0  0
   12.6629    2.7091   19.7002 C   0  0  0  0  0  0  0  0  0  0  0  0
   13.0834    2.7083   18.3965 C   0  0  0  0  0  0  0  0  0  0  0  0
   12.2742    2.4426   17.1374 C   0  0  0  0  0  0  0  0  0  0  0  0
   10.9511    2.1217   16.9763 C   0  0  0  0  0  0  0  0  0  0  0  0
   10.1372    1.8477   18.2108 C   0  0  0  0  0  0  0  0  0  0  0  0
    8.3803    1.8505   18.7794 N   0  0  0  0  0  0  0  0  0  0  0  0
    0.2304    0.8124   27.8126 N   0  0  0  0  0  0  0  0  0  0  0  0
   -2.6197   -0.9480   32.5890 H   0  0  0  0  0  0  0  0  0  0  0  0
   -1.3462   -1.8245   31.7233 H   0  0  0  0  0  0  0  0  0  0  0  0
   -3.0042   -1.8588   31.1185 H   0  0  0  0  0  0  0  0  0  0  0  0
   -1.1730    0.6189   31.2942 H   0  0  0  0  0  0  0  0  0  0  0  0
   -2.8485    0.6460   30.7753 H   0  0  0  0  0  0  0  0  0  0  0  0
   -1.7433   -1.2260   28.9753 H   0  0  0  0  0  0  0  0  0  0  0  0
   -2.1063    0.4774   28.6577 H   0  0  0  0  0  0  0  0  0  0  0  0
    0.9010   -1.2317   30.2977 H   0  0  0  0  0  0  0  0  0  0  0  0
    3.0992   -0.4325   28.8834 H   0  0  0  0  0  0  0  0  0  0  0  0
    2.9356    2.3894   27.3373 H   0  0  0  0  0  0  0  0  0  0  0  0
    1.7180    2.2158   26.0880 H   0  0  0  0  0  0  0  0  0  0  0  0
    3.4415    0.4479   25.0877 H   0  0  0  0  0  0  0  0  0  0  0  0
    4.9038    0.2965   24.0153 H   0  0  0  0  0  0  0  0  0  0  0  0
    7.3467    2.0230   23.7390 H   0  0  0  0  0  0  0  0  0  0  0  0
    7.2267    0.3178   23.2938 H   0  0  0  0  0  0  0  0  0  0  0  0
    6.2104    0.9981   21.0516 H   0  0  0  0  0  0  0  0  0  0  0  0
    6.3662    2.6992   21.5036 H   0  0  0  0  0  0  0  0  0  0  0  0
   10.4740    2.6311   22.3812 H   0  0  0  0  0  0  0  0  0  0  0  0
   13.2430    3.0077   20.5606 H   0  0  0  0  0  0  0  0  0  0  0  0
   14.1029    3.0343   18.1923 H   0  0  0  0  0  0  0  0  0  0  0  0
   12.8509    2.6166   16.2283 H   0  0  0  0  0  0  0  0  0  0  0  0
   10.4716    2.0250   16.0106 H   0  0  0  0  0  0  0  0  0  0  0  0
  1  2  1  0
  2  3  1  0
  3  4  1  0
  4  5  1  0
  5  6  2  0
  6  7  1  0
  7  8  1  0
  8  9  1  0
  9 10  1  0
 10 11  2  0
 10 12  1  0
 12 13  1  0
 13 14  1  0
 14 15  1  0
 15 16  2  0
 16 17  1  0
 17 18  1  0
 18 19  2  0
 19 20  1  0
 20 21  2  0
 21 22  1  0
 22 23  2  0
  7 24  2  0
 24  4  1  0
 23 15  1  0
 22 17  1  0
  1 25  1  0
  1 26  1  0
  1 27  1  0
  2 28  1  0
  2 29  1  0
  3 30  1  0
  3 31  1  0
  5 32  1  0
  6 33  1  0
  8 34  1  0
  8 35  1  0
  9 36  1  0
 12 37  1  0
 13 38  1  0
 13 39  1  0
 14 40  1  0
 14 41  1  0
 16 42  1  0
 18 43  1  0
 19 44  1  0
 20 45  1  0
 21 46  1  0
M  END
>  <Energy>  (452) 
672.4413817409752

>  <compound_id>  (452) 
55954

>  <target_id>  (452) 
1

>  <reference_id>  (452) 
103

>  <inspiration_ids>  (452) 
[7, 103]

>  <energy_score>  (452) 
685.4105586855112

>  <distance_score>  (452) 
11.200298665933946

>  <path>  (452) 
/opt/xchem-fragalysis-2/maxwin/BulkDock/SCRATCH/511024/C55954-P103/C55954-P103.minimised.mol

>  <scratch_subdir>  (452) 
/opt/xchem-fragalysis-2/maxwin/BulkDock/SCRATCH/511024/C55954-P103

>  <fragmenstein_runtime>  (452) 
9.558775663375854

>  <fragmenstein_outcome>  (452) 
too moved

>  <fragmenstein_mode>  (452) 
expansion

>  <fragmenstein_error>  (452) 


$$$$
C55960-P7
     RDKit          3D

 42 45  0  0  0  0  0  0  0  0999 V2000
   -0.4993   -3.7208   28.8951 C   0  0  0  0  0  0  0  0  0  0  0  0
    0.0266   -2.4656   29.6068 C   0  0  0  0  0  0  0  0  0  0  0  0
    0.9650   -1.7321   28.7052 N   0  0  0  0  0  0  0  0  0  0  0  0
    2.1659   -2.2083   27.9487 C   0  0  0  0  0  0  0  0  0  0  0  0
    2.6197   -3.3155   27.8207 O   0  0  0  0  0  0  0  0  0  0  0  0
    2.9662   -1.0126   27.2872 C   0  0  0  0  0  0  0  0  0  0  0  0
    4.0472   -1.2875   26.1915 C   0  0  0  0  0  0  0  0  0  0  0  0
    4.3360   -2.4029   25.4171 C   0  0  0  0  0  0  0  0  0  0  0  0
    5.3255   -2.0482   24.5205 N   0  0  0  0  0  0  0  0  0  0  0  0
    5.9386   -2.7978   23.5067 C   0  0  0  0  0  0  0  0  0  0  0  0
    6.8697   -2.2238   22.7231 C   0  0  0  0  0  0  0  0  0  0  0  0
    7.2052   -0.8277   22.9554 C   0  0  0  0  0  0  0  0  0  0  0  0
    6.6257   -0.1170   23.9448 C   0  0  0  0  0  0  0  0  0  0  0  0
    5.6414   -0.7229   24.7875 C   0  0  0  0  0  0  0  0  0  0  0  0
    4.9191   -0.2565   25.7964 N   0  0  0  0  0  0  0  0  0  0  0  0
   -1.1781   -1.7429   30.2671 C   0  0  0  0  0  0  0  0  0  0  0  0
   -2.0101   -0.6728   29.8364 C   0  0  0  0  0  0  0  0  0  0  0  0
   -3.0544   -0.4288   30.6479 N   0  0  0  0  0  0  0  0  0  0  0  0
   -2.9460   -1.3668   31.5987 N   0  0  0  0  0  0  0  0  0  0  0  0
   -3.8859   -1.4444   32.7573 C   0  0  0  0  0  0  0  0  0  0  0  0
   -4.6250   -2.7062   33.1430 C   0  0  0  0  0  0  0  0  0  0  0  0
   -5.3904   -1.5414   32.5928 C   0  0  0  0  0  0  0  0  0  0  0  0
   -1.8281   -2.1431   31.4436 C   0  0  0  0  0  0  0  0  0  0  0  0
    0.3109   -4.3241   28.4757 H   0  0  0  0  0  0  0  0  0  0  0  0
   -1.0600   -4.3618   29.5850 H   0  0  0  0  0  0  0  0  0  0  0  0
   -1.1770   -3.4474   28.0810 H   0  0  0  0  0  0  0  0  0  0  0  0
    0.6712   -2.8062   30.4282 H   0  0  0  0  0  0  0  0  0  0  0  0
    0.9256   -0.7210   28.6644 H   0  0  0  0  0  0  0  0  0  0  0  0
    2.2432   -0.3080   26.8704 H   0  0  0  0  0  0  0  0  0  0  0  0
    3.4796   -0.5029   28.1127 H   0  0  0  0  0  0  0  0  0  0  0  0
    3.8881   -3.3854   25.3979 H   0  0  0  0  0  0  0  0  0  0  0  0
    5.6186   -3.8257   23.4007 H   0  0  0  0  0  0  0  0  0  0  0  0
    7.3654   -2.7719   21.9316 H   0  0  0  0  0  0  0  0  0  0  0  0
    7.9381   -0.3557   22.3162 H   0  0  0  0  0  0  0  0  0  0  0  0
    6.8707    0.9233   24.1218 H   0  0  0  0  0  0  0  0  0  0  0  0
   -1.9040   -0.0687   28.9431 H   0  0  0  0  0  0  0  0  0  0  0  0
   -3.5344   -0.8191   33.5729 H   0  0  0  0  0  0  0  0  0  0  0  0
   -4.5098   -3.5817   32.5143 H   0  0  0  0  0  0  0  0  0  0  0  0
   -4.7205   -2.9291   34.1995 H   0  0  0  0  0  0  0  0  0  0  0  0
   -6.0130   -0.9692   33.2706 H   0  0  0  0  0  0  0  0  0  0  0  0
   -5.7887   -1.6179   31.5866 H   0  0  0  0  0  0  0  0  0  0  0  0
   -1.6053   -2.9356   32.1440 H   0  0  0  0  0  0  0  0  0  0  0  0
  1  2  1  0
  2  3  1  0
  3  4  1  0
  4  5  2  0
  4  6  1  0
  6  7  1  0
  7  8  2  0
  8  9  1  0
  9 10  1  0
 10 11  2  0
 11 12  1  0
 12 13  2  0
 13 14  1  0
 14 15  2  0
  2 16  1  0
 16 17  1  0
 17 18  2  0
 18 19  1  0
 19 20  1  0
 20 21  1  0
 21 22  1  0
 19 23  1  0
 15  7  1  0
 23 16  2  0
 14  9  1  0
 22 20  1  0
  1 24  1  0
  1 25  1  0
  1 26  1  0
  2 27  1  0
  3 28  1  0
  6 29  1  0
  6 30  1  0
  8 31  1  0
 10 32  1  0
 11 33  1  0
 12 34  1  0
 13 35  1  0
 17 36  1  0
 20 37  1  0
 21 38  1  0
 21 39  1  0
 22 40  1  0
 22 41  1  0
 23 42  1  0
M  END
>  <Energy>  (453) 
61.622389298061428

>  <compound_id>  (453) 
55960

>  <target_id>  (453) 
1

>  <reference_id>  (453) 
7

>  <inspiration_ids>  (453) 
[7, 103]

>  <energy_score>  (453) 
-7.670612383855996

>  <distance_score>  (453) 
11.990335525810305

>  <path>  (453) 
/opt/xchem-fragalysis-2/maxwin/BulkDock/SCRATCH/511024/C55960-P7/C55960-P7.minimised.mol

>  <scratch_subdir>  (453) 
/opt/xchem-fragalysis-2/maxwin/BulkDock/SCRATCH/511024/C55960-P7

>  <fragmenstein_runtime>  (453) 
8.569898128509521

>  <fragmenstein_outcome>  (453) 
too moved

>  <fragmenstein_mode>  (453) 
expansion

>  <fragmenstein_error>  (453) 


$$$$
C55960-P103
     RDKit          3D

 42 45  0  0  0  0  0  0  0  0999 V2000
    5.9527   -0.9018   25.8220 C   0  0  0  0  0  0  0  0  0  0  0  0
    5.1797    0.3714   25.4611 C   0  0  0  0  0  0  0  0  0  0  0  0
    5.2397    0.5737   23.9530 N   0  0  0  0  0  0  0  0  0  0  0  0
    6.4238    0.6322   23.0064 C   0  0  0  0  0  0  0  0  0  0  0  0
    7.6077    0.6121   23.2328 O   0  0  0  0  0  0  0  0  0  0  0  0
    5.9598    0.7437   21.4623 C   0  0  0  0  0  0  0  0  0  0  0  0
    6.9788    0.7519   20.2003 C   0  0  0  0  0  0  0  0  0  0  0  0
    7.4295   -0.3056   19.3507 C   0  0  0  0  0  0  0  0  0  0  0  0
    8.0965    0.3088   17.9160 N   0  0  0  0  0  0  0  0  0  0  0  0
    8.6339   -0.1317   16.6692 C   0  0  0  0  0  0  0  0  0  0  0  0
    9.2184    0.7327   15.8272 C   0  0  0  0  0  0  0  0  0  0  0  0
    9.1723    2.1510   16.0970 C   0  0  0  0  0  0  0  0  0  0  0  0
    8.4936    2.6581   17.1395 C   0  0  0  0  0  0  0  0  0  0  0  0
    7.9827    1.7832   18.1667 C   0  0  0  0  0  0  0  0  0  0  0  0
    7.1370    1.9470   19.3011 N   0  0  0  0  0  0  0  0  0  0  0  0
    3.7323    0.3669   26.2268 C   0  0  0  0  0  0  0  0  0  0  0  0
    2.9723    1.4883   26.7107 C   0  0  0  0  0  0  0  0  0  0  0  0
    1.8943    1.1754   27.4551 N   0  0  0  0  0  0  0  0  0  0  0  0
    1.9239   -0.1666   27.5159 N   0  0  0  0  0  0  0  0  0  0  0  0
    0.8636   -0.9856   28.2329 C   0  0  0  0  0  0  0  0  0  0  0  0
   -0.5867   -0.5430   28.3739 C   0  0  0  0  0  0  0  0  0  0  0  0
    0.2856   -0.6099   29.5885 C   0  0  0  0  0  0  0  0  0  0  0  0
    2.9975   -0.6878   26.8049 C   0  0  0  0  0  0  0  0  0  0  0  0
    6.9843   -0.8561   25.4584 H   0  0  0  0  0  0  0  0  0  0  0  0
    5.4839   -1.7852   25.3740 H   0  0  0  0  0  0  0  0  0  0  0  0
    5.9902   -1.0493   26.9067 H   0  0  0  0  0  0  0  0  0  0  0  0
    5.7267    1.2270   25.8778 H   0  0  0  0  0  0  0  0  0  0  0  0
    4.3788    0.5282   23.4117 H   0  0  0  0  0  0  0  0  0  0  0  0
    5.3786    1.6706   21.3805 H   0  0  0  0  0  0  0  0  0  0  0  0
    5.2828   -0.0997   21.2785 H   0  0  0  0  0  0  0  0  0  0  0  0
    7.7543   -1.2674   19.6502 H   0  0  0  0  0  0  0  0  0  0  0  0
    8.5674   -1.1582   16.3428 H   0  0  0  0  0  0  0  0  0  0  0  0
    9.6142    0.3970   14.8702 H   0  0  0  0  0  0  0  0  0  0  0  0
    9.6223    2.8152   15.3641 H   0  0  0  0  0  0  0  0  0  0  0  0
    8.4028    3.7302   17.2751 H   0  0  0  0  0  0  0  0  0  0  0  0
    3.1939    2.5367   26.5504 H   0  0  0  0  0  0  0  0  0  0  0  0
    1.0158   -2.0464   28.0543 H   0  0  0  0  0  0  0  0  0  0  0  0
   -0.8546    0.4388   27.9971 H   0  0  0  0  0  0  0  0  0  0  0  0
   -1.3586   -1.2927   28.2573 H   0  0  0  0  0  0  0  0  0  0  0  0
    0.1156   -1.4068   30.3017 H   0  0  0  0  0  0  0  0  0  0  0  0
    0.6080    0.3268   30.0309 H   0  0  0  0  0  0  0  0  0  0  0  0
    3.1537   -1.7563   26.7732 H   0  0  0  0  0  0  0  0  0  0  0  0
  1  2  1  0
  2  3  1  0
  3  4  1  0
  4  5  2  0
  4  6  1  0
  6  7  1  0
  7  8  2  0
  8  9  1  0
  9 10  1  0
 10 11  2  0
 11 12  1  0
 12 13  2  0
 13 14  1  0
 14 15  2  0
  2 16  1  0
 16 17  1  0
 17 18  2  0
 18 19  1  0
 19 20  1  0
 20 21  1  0
 21 22  1  0
 19 23  1  0
 15  7  1  0
 23 16  2  0
 14  9  1  0
 22 20  1  0
  1 24  1  0
  1 25  1  0
  1 26  1  0
  2 27  1  0
  3 28  1  0
  6 29  1  0
  6 30  1  0
  8 31  1  0
 10 32  1  0
 11 33  1  0
 12 34  1  0
 13 35  1  0
 17 36  1  0
 20 37  1  0
 21 38  1  0
 21 39  1  0
 22 40  1  0
 22 41  1  0
 23 42  1  0
M  END
>  <Energy>  (454) 
145.00809294683356

>  <compound_id>  (454) 
55960

>  <target_id>  (454) 
1

>  <reference_id>  (454) 
103

>  <inspiration_ids>  (454) 
[7, 103]

>  <energy_score>  (454) 
75.71509126491722

>  <distance_score>  (454) 
12.980739323414005

>  <path>  (454) 
/opt/xchem-fragalysis-2/maxwin/BulkDock/SCRATCH/511024/C55960-P103/C55960-P103.minimised.mol

>  <scratch_subdir>  (454) 
/opt/xchem-fragalysis-2/maxwin/BulkDock/SCRATCH/511024/C55960-P103

>  <fragmenstein_runtime>  (454) 
8.043357849121094

>  <fragmenstein_outcome>  (454) 
too moved

>  <fragmenstein_mode>  (454) 
expansion

>  <fragmenstein_error>  (454) 


$$$$
C55962-P7
     RDKit          3D

 47 49  0  0  0  0  0  0  0  0999 V2000
    1.8368   -2.1021   28.0186 C   0  0  0  0  0  0  0  0  0  0  0  0
    2.3151   -0.6858   28.0442 N   0  0  0  0  0  0  0  0  0  0  0  0
    1.7889   -0.7680   29.5068 C   0  0  0  0  0  0  0  0  0  0  0  0
    0.3173   -0.7875   30.0456 C   0  0  0  0  0  0  0  0  0  0  0  0
   -0.1209   -0.0833   31.2207 C   0  0  0  0  0  0  0  0  0  0  0  0
   -1.2890   -0.6927   31.6462 C   0  0  0  0  0  0  0  0  0  0  0  0
   -2.0532   -0.6131   32.9507 C   0  0  0  0  0  0  0  0  0  0  0  0
   -3.5690   -0.6297   32.7181 C   0  0  0  0  0  0  0  0  0  0  0  0
   -1.6718   -1.8209   33.8291 C   0  0  0  0  0  0  0  0  0  0  0  0
   -1.7014    0.6767   33.7172 C   0  0  0  0  0  0  0  0  0  0  0  0
   -1.5880   -1.5714   30.6372 N   0  0  0  0  0  0  0  0  0  0  0  0
   -0.6136   -1.6977   29.7150 N   0  0  0  0  0  0  0  0  0  0  0  0
    3.6859   -0.6078   27.5259 C   0  0  0  0  0  0  0  0  0  0  0  0
    4.7446   -0.6788   28.1016 O   0  0  0  0  0  0  0  0  0  0  0  0
    3.6997   -0.3914   25.9665 C   0  0  0  0  0  0  0  0  0  0  0  0
    5.0817   -0.4410   25.2808 C   0  0  0  0  0  0  0  0  0  0  0  0
    6.0642   -1.4164   25.3554 C   0  0  0  0  0  0  0  0  0  0  0  0
    7.1507   -0.9384   24.6651 N   0  0  0  0  0  0  0  0  0  0  0  0
    8.4488   -1.4421   24.6038 C   0  0  0  0  0  0  0  0  0  0  0  0
    9.4014   -0.7167   23.9988 C   0  0  0  0  0  0  0  0  0  0  0  0
    9.0331    0.5405   23.3678 C   0  0  0  0  0  0  0  0  0  0  0  0
    7.7601    0.9864   23.3676 C   0  0  0  0  0  0  0  0  0  0  0  0
    6.7580    0.2597   24.0801 C   0  0  0  0  0  0  0  0  0  0  0  0
    5.5074    0.5530   24.3936 N   0  0  0  0  0  0  0  0  0  0  0  0
    0.7569   -2.1741   27.8745 H   0  0  0  0  0  0  0  0  0  0  0  0
    2.2293   -2.5279   27.0859 H   0  0  0  0  0  0  0  0  0  0  0  0
    2.2603   -2.7944   28.7624 H   0  0  0  0  0  0  0  0  0  0  0  0
    2.1355    0.2219   29.8524 H   0  0  0  0  0  0  0  0  0  0  0  0
    2.4274   -1.4181   30.1322 H   0  0  0  0  0  0  0  0  0  0  0  0
    0.4610    0.6446   31.7708 H   0  0  0  0  0  0  0  0  0  0  0  0
   -3.8702    0.2073   32.0833 H   0  0  0  0  0  0  0  0  0  0  0  0
   -4.1188   -0.5441   33.6626 H   0  0  0  0  0  0  0  0  0  0  0  0
   -3.8982   -1.5568   32.2359 H   0  0  0  0  0  0  0  0  0  0  0  0
   -2.1915   -1.7901   34.7937 H   0  0  0  0  0  0  0  0  0  0  0  0
   -1.9318   -2.7687   33.3428 H   0  0  0  0  0  0  0  0  0  0  0  0
   -0.5943   -1.8425   34.0312 H   0  0  0  0  0  0  0  0  0  0  0  0
   -1.9245    1.5673   33.1202 H   0  0  0  0  0  0  0  0  0  0  0  0
   -2.2716    0.7515   34.6505 H   0  0  0  0  0  0  0  0  0  0  0  0
   -0.6385    0.7135   33.9829 H   0  0  0  0  0  0  0  0  0  0  0  0
   -2.3841   -2.1949   30.5610 H   0  0  0  0  0  0  0  0  0  0  0  0
    3.2476    0.5870   25.7684 H   0  0  0  0  0  0  0  0  0  0  0  0
    3.0826   -1.1618   25.4996 H   0  0  0  0  0  0  0  0  0  0  0  0
    6.1077   -2.3382   25.9169 H   0  0  0  0  0  0  0  0  0  0  0  0
    8.6482   -2.3738   25.1175 H   0  0  0  0  0  0  0  0  0  0  0  0
   10.4402   -1.0309   24.0028 H   0  0  0  0  0  0  0  0  0  0  0  0
    9.8322    1.1274   22.9255 H   0  0  0  0  0  0  0  0  0  0  0  0
    7.4855    1.9345   22.9208 H   0  0  0  0  0  0  0  0  0  0  0  0
  1  2  1  0
  2  3  1  0
  3  4  1  0
  4  5  1  0
  5  6  2  0
  6  7  1  0
  7  8  1  0
  7  9  1  0
  7 10  1  0
  6 11  1  0
 11 12  1  0
  2 13  1  0
 13 14  2  0
 13 15  1  0
 15 16  1  0
 16 17  2  0
 17 18  1  0
 18 19  1  0
 19 20  2  0
 20 21  1  0
 21 22  2  0
 22 23  1  0
 23 24  2  0
 12  4  2  0
 24 16  1  0
 23 18  1  0
  1 25  1  0
  1 26  1  0
  1 27  1  0
  3 28  1  0
  3 29  1  0
  5 30  1  0
  8 31  1  0
  8 32  1  0
  8 33  1  0
  9 34  1  0
  9 35  1  0
  9 36  1  0
 10 37  1  0
 10 38  1  0
 10 39  1  0
 11 40  1  0
 15 41  1  0
 15 42  1  0
 17 43  1  0
 19 44  1  0
 20 45  1  0
 21 46  1  0
 22 47  1  0
M  END
>  <Energy>  (455) 
153.38429826717191

>  <compound_id>  (455) 
55962

>  <target_id>  (455) 
1

>  <reference_id>  (455) 
7

>  <inspiration_ids>  (455) 
[7, 103]

>  <energy_score>  (455) 
41.78272231881124

>  <distance_score>  (455) 
11.897088620813129

>  <path>  (455) 
/opt/xchem-fragalysis-2/maxwin/BulkDock/SCRATCH/511024/C55962-P7/C55962-P7.minimised.mol

>  <scratch_subdir>  (455) 
/opt/xchem-fragalysis-2/maxwin/BulkDock/SCRATCH/511024/C55962-P7

>  <fragmenstein_runtime>  (455) 
10.043346166610718

>  <fragmenstein_outcome>  (455) 
too moved

>  <fragmenstein_mode>  (455) 
expansion

>  <fragmenstein_error>  (455) 


$$$$
C55962-P103
     RDKit          3D

 47 49  0  0  0  0  0  0  0  0999 V2000
    1.5135    2.9383   21.4761 C   0  0  0  0  0  0  0  0  0  0  0  0
    2.5485    3.8764   22.0162 N   0  0  0  0  0  0  0  0  0  0  0  0
    1.3236    4.4100   22.8188 C   0  0  0  0  0  0  0  0  0  0  0  0
    0.6425    3.7145   24.0313 C   0  0  0  0  0  0  0  0  0  0  0  0
   -0.7513    3.7804   24.3480 C   0  0  0  0  0  0  0  0  0  0  0  0
   -0.8860    3.2785   25.6272 C   0  0  0  0  0  0  0  0  0  0  0  0
   -2.0601    3.2693   26.5680 C   0  0  0  0  0  0  0  0  0  0  0  0
   -2.2465    4.7103   27.0789 C   0  0  0  0  0  0  0  0  0  0  0  0
   -3.3287    2.8111   25.8267 C   0  0  0  0  0  0  0  0  0  0  0  0
   -1.8136    2.3195   27.7519 C   0  0  0  0  0  0  0  0  0  0  0  0
    0.3764    2.8870   25.9784 N   0  0  0  0  0  0  0  0  0  0  0  0
    1.3077    3.1133   25.0281 N   0  0  0  0  0  0  0  0  0  0  0  0
    3.3055    4.4831   20.9133 C   0  0  0  0  0  0  0  0  0  0  0  0
    3.1097    5.5025   20.2988 O   0  0  0  0  0  0  0  0  0  0  0  0
    4.5538    3.6174   20.5465 C   0  0  0  0  0  0  0  0  0  0  0  0
    5.5214    4.1696   19.4766 C   0  0  0  0  0  0  0  0  0  0  0  0
    6.2551    5.3463   19.4544 C   0  0  0  0  0  0  0  0  0  0  0  0
    7.1289    5.2624   18.3880 N   0  0  0  0  0  0  0  0  0  0  0  0
    8.2016    6.0862   18.0439 C   0  0  0  0  0  0  0  0  0  0  0  0
    9.0330    5.7152   17.0533 C   0  0  0  0  0  0  0  0  0  0  0  0
    8.7713    4.4829   16.3345 C   0  0  0  0  0  0  0  0  0  0  0  0
    7.7231    3.7041   16.6554 C   0  0  0  0  0  0  0  0  0  0  0  0
    6.8697    4.0600   17.7505 C   0  0  0  0  0  0  0  0  0  0  0  0
    5.9156    3.3941   18.3817 N   0  0  0  0  0  0  0  0  0  0  0  0
    2.0451    2.2930   20.7617 H   0  0  0  0  0  0  0  0  0  0  0  0
    0.7465    3.4131   20.8454 H   0  0  0  0  0  0  0  0  0  0  0  0
    1.1224    2.2157   22.2025 H   0  0  0  0  0  0  0  0  0  0  0  0
    0.5816    4.8966   22.1615 H   0  0  0  0  0  0  0  0  0  0  0  0
    1.7826    5.2959   23.2903 H   0  0  0  0  0  0  0  0  0  0  0  0
   -1.5274    4.2492   23.7581 H   0  0  0  0  0  0  0  0  0  0  0  0
   -2.4100    5.4120   26.2518 H   0  0  0  0  0  0  0  0  0  0  0  0
   -3.1029    4.8003   27.7457 H   0  0  0  0  0  0  0  0  0  0  0  0
   -1.3607    5.0548   27.6259 H   0  0  0  0  0  0  0  0  0  0  0  0
   -4.1931    2.7781   26.4976 H   0  0  0  0  0  0  0  0  0  0  0  0
   -3.1987    1.8089   25.4011 H   0  0  0  0  0  0  0  0  0  0  0  0
   -3.5847    3.4868   25.0024 H   0  0  0  0  0  0  0  0  0  0  0  0
   -2.6748    2.2901   28.4191 H   0  0  0  0  0  0  0  0  0  0  0  0
   -1.6250    1.2943   27.4113 H   0  0  0  0  0  0  0  0  0  0  0  0
   -0.9554    2.6337   28.3570 H   0  0  0  0  0  0  0  0  0  0  0  0
    0.6906    2.4833   26.8544 H   0  0  0  0  0  0  0  0  0  0  0  0
    4.2009    2.6401   20.1996 H   0  0  0  0  0  0  0  0  0  0  0  0
    5.1321    3.4613   21.4653 H   0  0  0  0  0  0  0  0  0  0  0  0
    6.2650    6.1918   20.1281 H   0  0  0  0  0  0  0  0  0  0  0  0
    8.3384    6.9941   18.6186 H   0  0  0  0  0  0  0  0  0  0  0  0
    9.8906    6.3159   16.7682 H   0  0  0  0  0  0  0  0  0  0  0  0
    9.4408    4.2136   15.5230 H   0  0  0  0  0  0  0  0  0  0  0  0
    7.5467    2.7925   16.1017 H   0  0  0  0  0  0  0  0  0  0  0  0
  1  2  1  0
  2  3  1  0
  3  4  1  0
  4  5  1  0
  5  6  2  0
  6  7  1  0
  7  8  1  0
  7  9  1  0
  7 10  1  0
  6 11  1  0
 11 12  1  0
  2 13  1  0
 13 14  2  0
 13 15  1  0
 15 16  1  0
 16 17  2  0
 17 18  1  0
 18 19  1  0
 19 20  2  0
 20 21  1  0
 21 22  2  0
 22 23  1  0
 23 24  2  0
 12  4  2  0
 24 16  1  0
 23 18  1  0
  1 25  1  0
  1 26  1  0
  1 27  1  0
  3 28  1  0
  3 29  1  0
  5 30  1  0
  8 31  1  0
  8 32  1  0
  8 33  1  0
  9 34  1  0
  9 35  1  0
  9 36  1  0
 10 37  1  0
 10 38  1  0
 10 39  1  0
 11 40  1  0
 15 41  1  0
 15 42  1  0
 17 43  1  0
 19 44  1  0
 20 45  1  0
 21 46  1  0
 22 47  1  0
M  END
>  <Energy>  (456) 
147.61594514649752

>  <compound_id>  (456) 
55962

>  <target_id>  (456) 
1

>  <reference_id>  (456) 
103

>  <inspiration_ids>  (456) 
[7, 103]

>  <energy_score>  (456) 
36.01436919814222

>  <distance_score>  (456) 
13.381900901221556

>  <path>  (456) 
/opt/xchem-fragalysis-2/maxwin/BulkDock/SCRATCH/511024/C55962-P103/C55962-P103.minimised.mol

>  <scratch_subdir>  (456) 
/opt/xchem-fragalysis-2/maxwin/BulkDock/SCRATCH/511024/C55962-P103

>  <fragmenstein_runtime>  (456) 
7.651952505111694

>  <fragmenstein_outcome>  (456) 
too moved

>  <fragmenstein_mode>  (456) 
expansion

>  <fragmenstein_error>  (456) 


$$$$
C55963-P7
     RDKit          3D

 46 48  0  0  0  0  0  0  0  0999 V2000
    3.6746   -3.7347   23.9554 C   0  0  0  0  0  0  0  0  0  0  0  0
    4.8948   -3.2297   23.4127 N   0  0  0  0  0  0  0  0  0  0  0  0
    4.7960   -2.2333   24.7422 C   0  0  0  0  0  0  0  0  0  0  0  0
    3.7553   -2.1627   26.0002 C   0  0  0  0  0  0  0  0  0  0  0  0
    3.1341   -0.9786   26.5284 C   0  0  0  0  0  0  0  0  0  0  0  0
    2.3936   -1.3534   27.6391 C   0  0  0  0  0  0  0  0  0  0  0  0
    1.5657   -0.5833   28.6412 C   0  0  0  0  0  0  0  0  0  0  0  0
    2.1718   -0.7484   30.0488 C   0  0  0  0  0  0  0  0  0  0  0  0
    0.1152   -1.0981   28.6540 C   0  0  0  0  0  0  0  0  0  0  0  0
    1.5418    0.9201   28.3028 C   0  0  0  0  0  0  0  0  0  0  0  0
    2.5808   -2.7084   27.7106 N   0  0  0  0  0  0  0  0  0  0  0  0
    3.4815   -3.1934   26.8302 N   0  0  0  0  0  0  0  0  0  0  0  0
    5.1445   -2.4189   22.1715 C   0  0  0  0  0  0  0  0  0  0  0  0
    4.3846   -1.9402   21.4130 O   0  0  0  0  0  0  0  0  0  0  0  0
    6.5847   -2.4878   22.1344 N   0  0  0  0  0  0  0  0  0  0  0  0
    7.4745   -2.1037   21.1721 C   0  0  0  0  0  0  0  0  0  0  0  0
    7.4019   -1.1239   20.1207 C   0  0  0  0  0  0  0  0  0  0  0  0
    8.4343   -1.4393   19.0820 N   0  0  0  0  0  0  0  0  0  0  0  0
    8.8840   -1.4175   17.0712 C   0  0  0  0  0  0  0  0  0  0  0  0
   10.5671   -1.8568   16.8182 C   0  0  0  0  0  0  0  0  0  0  0  0
   11.8486   -2.5121   18.1736 C   0  0  0  0  0  0  0  0  0  0  0  0
   11.5279   -2.6964   19.9330 C   0  0  0  0  0  0  0  0  0  0  0  0
    9.4517   -2.5987   20.2736 C   0  0  0  0  0  0  0  0  0  0  0  0
    8.5469   -3.0372   21.1511 N   0  0  0  0  0  0  0  0  0  0  0  0
    2.8974   -3.0011   23.8207 H   0  0  0  0  0  0  0  0  0  0  0  0
    3.3669   -4.4911   23.2156 H   0  0  0  0  0  0  0  0  0  0  0  0
    3.7845   -4.3500   24.8489 H   0  0  0  0  0  0  0  0  0  0  0  0
    4.9027   -1.2116   24.3598 H   0  0  0  0  0  0  0  0  0  0  0  0
    5.7607   -2.4464   25.2298 H   0  0  0  0  0  0  0  0  0  0  0  0
    3.2487    0.0176   26.1229 H   0  0  0  0  0  0  0  0  0  0  0  0
    2.1633   -1.7956   30.3730 H   0  0  0  0  0  0  0  0  0  0  0  0
    1.6106   -0.1709   30.7924 H   0  0  0  0  0  0  0  0  0  0  0  0
    3.2130   -0.4054   30.0757 H   0  0  0  0  0  0  0  0  0  0  0  0
    0.0624   -2.1664   28.8930 H   0  0  0  0  0  0  0  0  0  0  0  0
   -0.4866   -0.5649   29.3992 H   0  0  0  0  0  0  0  0  0  0  0  0
   -0.3652   -0.9531   27.6815 H   0  0  0  0  0  0  0  0  0  0  0  0
    1.1011    1.1037   27.3163 H   0  0  0  0  0  0  0  0  0  0  0  0
    2.5514    1.3476   28.2997 H   0  0  0  0  0  0  0  0  0  0  0  0
    0.9495    1.4810   29.0352 H   0  0  0  0  0  0  0  0  0  0  0  0
    2.1870   -3.3560   28.3826 H   0  0  0  0  0  0  0  0  0  0  0  0
    6.9082   -3.0477   22.9099 H   0  0  0  0  0  0  0  0  0  0  0  0
    6.5997   -0.4603   19.8551 H   0  0  0  0  0  0  0  0  0  0  0  0
    8.2345   -0.8701   16.3745 H   0  0  0  0  0  0  0  0  0  0  0  0
   11.0316   -1.7593   15.8354 H   0  0  0  0  0  0  0  0  0  0  0  0
   12.8088   -2.8001   17.7483 H   0  0  0  0  0  0  0  0  0  0  0  0
   12.1715   -3.2861   20.6137 H   0  0  0  0  0  0  0  0  0  0  0  0
  1  2  1  0
  2  3  1  0
  3  4  1  0
  4  5  1  0
  5  6  2  0
  6  7  1  0
  7  8  1  0
  7  9  1  0
  7 10  1  0
  6 11  1  0
 11 12  1  0
  2 13  1  0
 13 14  2  0
 13 15  1  0
 15 16  1  0
 16 17  2  0
 17 18  1  0
 18 19  1  0
 19 20  2  0
 20 21  1  0
 21 22  2  0
 22 23  1  0
 23 24  2  0
 12  4  2  0
 24 16  1  0
 23 18  1  0
  1 25  1  0
  1 26  1  0
  1 27  1  0
  3 28  1  0
  3 29  1  0
  5 30  1  0
  8 31  1  0
  8 32  1  0
  8 33  1  0
  9 34  1  0
  9 35  1  0
  9 36  1  0
 10 37  1  0
 10 38  1  0
 10 39  1  0
 11 40  1  0
 15 41  1  0
 17 42  1  0
 19 43  1  0
 20 44  1  0
 21 45  1  0
 22 46  1  0
M  END
>  <Energy>  (457) 
723.76872662201981

>  <compound_id>  (457) 
55963

>  <target_id>  (457) 
1

>  <reference_id>  (457) 
7

>  <inspiration_ids>  (457) 
[7, 103]

>  <energy_score>  (457) 
717.7937162468809

>  <distance_score>  (457) 
13.283272660192136

>  <path>  (457) 
/opt/xchem-fragalysis-2/maxwin/BulkDock/SCRATCH/511024/C55963-P7/C55963-P7.minimised.mol

>  <scratch_subdir>  (457) 
/opt/xchem-fragalysis-2/maxwin/BulkDock/SCRATCH/511024/C55963-P7

>  <fragmenstein_runtime>  (457) 
10.540163516998291

>  <fragmenstein_outcome>  (457) 
too moved

>  <fragmenstein_mode>  (457) 
expansion

>  <fragmenstein_error>  (457) 


$$$$
C55963-P103
     RDKit          3D

 46 48  0  0  0  0  0  0  0  0999 V2000
    4.1560   -4.0416   24.5239 C   0  0  0  0  0  0  0  0  0  0  0  0
    5.0185   -3.2119   23.7044 N   0  0  0  0  0  0  0  0  0  0  0  0
    5.1146   -2.3491   25.1052 C   0  0  0  0  0  0  0  0  0  0  0  0
    3.9084   -2.0648   26.1850 C   0  0  0  0  0  0  0  0  0  0  0  0
    3.4158   -2.9225   27.2389 C   0  0  0  0  0  0  0  0  0  0  0  0
    2.4242   -2.2312   27.9156 C   0  0  0  0  0  0  0  0  0  0  0  0
    1.5469   -2.5959   29.0904 C   0  0  0  0  0  0  0  0  0  0  0  0
    2.2584   -2.1921   30.3940 C   0  0  0  0  0  0  0  0  0  0  0  0
    1.2829   -4.1145   29.1155 C   0  0  0  0  0  0  0  0  0  0  0  0
    0.1823   -1.8826   29.0236 C   0  0  0  0  0  0  0  0  0  0  0  0
    2.4099   -1.0099   27.3011 N   0  0  0  0  0  0  0  0  0  0  0  0
    3.3256   -0.8595   26.3199 N   0  0  0  0  0  0  0  0  0  0  0  0
    6.4145   -3.4814   23.1487 C   0  0  0  0  0  0  0  0  0  0  0  0
    7.1215   -4.3993   23.3516 O   0  0  0  0  0  0  0  0  0  0  0  0
    6.5777   -2.3275   22.2137 N   0  0  0  0  0  0  0  0  0  0  0  0
    7.5676   -2.0614   21.2499 C   0  0  0  0  0  0  0  0  0  0  0  0
    7.5663   -0.9722   20.3420 C   0  0  0  0  0  0  0  0  0  0  0  0
    8.6336   -1.0685   19.3392 N   0  0  0  0  0  0  0  0  0  0  0  0
    9.1310   -0.0407   17.7278 C   0  0  0  0  0  0  0  0  0  0  0  0
   10.6634   -0.6905   17.0124 C   0  0  0  0  0  0  0  0  0  0  0  0
   11.8426   -2.0946   17.8405 C   0  0  0  0  0  0  0  0  0  0  0  0
   11.6124   -2.7296   19.5497 C   0  0  0  0  0  0  0  0  0  0  0  0
    9.5728   -2.5368   20.1644 C   0  0  0  0  0  0  0  0  0  0  0  0
    8.6275   -3.0476   21.0214 N   0  0  0  0  0  0  0  0  0  0  0  0
    3.9726   -4.9131   23.8759 H   0  0  0  0  0  0  0  0  0  0  0  0
    3.1593   -3.6387   24.6402 H   0  0  0  0  0  0  0  0  0  0  0  0
    4.6395   -4.5266   25.3830 H   0  0  0  0  0  0  0  0  0  0  0  0
    5.4473   -1.3590   24.7629 H   0  0  0  0  0  0  0  0  0  0  0  0
    5.9638   -2.7627   25.6736 H   0  0  0  0  0  0  0  0  0  0  0  0
    3.7513   -3.9271   27.4547 H   0  0  0  0  0  0  0  0  0  0  0  0
    1.6549   -2.4495   31.2718 H   0  0  0  0  0  0  0  0  0  0  0  0
    3.2257   -2.6985   30.4945 H   0  0  0  0  0  0  0  0  0  0  0  0
    2.4500   -1.1130   30.4261 H   0  0  0  0  0  0  0  0  0  0  0  0
    2.2109   -4.6859   29.2334 H   0  0  0  0  0  0  0  0  0  0  0  0
    0.8029   -4.4509   28.1891 H   0  0  0  0  0  0  0  0  0  0  0  0
    0.6254   -4.3885   29.9488 H   0  0  0  0  0  0  0  0  0  0  0  0
   -0.3436   -2.1141   28.0915 H   0  0  0  0  0  0  0  0  0  0  0  0
   -0.4651   -2.1900   29.8533 H   0  0  0  0  0  0  0  0  0  0  0  0
    0.2870   -0.7934   29.0841 H   0  0  0  0  0  0  0  0  0  0  0  0
    1.8265   -0.2107   27.5150 H   0  0  0  0  0  0  0  0  0  0  0  0
    5.7384   -1.7617   22.2331 H   0  0  0  0  0  0  0  0  0  0  0  0
    6.8681   -0.1596   20.2472 H   0  0  0  0  0  0  0  0  0  0  0  0
    8.4612    0.7055   17.3328 H   0  0  0  0  0  0  0  0  0  0  0  0
   11.0762   -0.3001   16.0813 H   0  0  0  0  0  0  0  0  0  0  0  0
   12.7958   -2.2087   17.3231 H   0  0  0  0  0  0  0  0  0  0  0  0
   12.3220   -3.3594   20.1326 H   0  0  0  0  0  0  0  0  0  0  0  0
  1  2  1  0
  2  3  1  0
  3  4  1  0
  4  5  1  0
  5  6  2  0
  6  7  1  0
  7  8  1  0
  7  9  1  0
  7 10  1  0
  6 11  1  0
 11 12  1  0
  2 13  1  0
 13 14  2  0
 13 15  1  0
 15 16  1  0
 16 17  2  0
 17 18  1  0
 18 19  1  0
 19 20  2  0
 20 21  1  0
 21 22  2  0
 22 23  1  0
 23 24  2  0
 12  4  2  0
 24 16  1  0
 23 18  1  0
  1 25  1  0
  1 26  1  0
  1 27  1  0
  3 28  1  0
  3 29  1  0
  5 30  1  0
  8 31  1  0
  8 32  1  0
  8 33  1  0
  9 34  1  0
  9 35  1  0
  9 36  1  0
 10 37  1  0
 10 38  1  0
 10 39  1  0
 11 40  1  0
 15 41  1  0
 17 42  1  0
 19 43  1  0
 20 44  1  0
 21 45  1  0
 22 46  1  0
M  END
>  <Energy>  (458) 
723.62388534854472

>  <compound_id>  (458) 
55963

>  <target_id>  (458) 
1

>  <reference_id>  (458) 
103

>  <inspiration_ids>  (458) 
[7, 103]

>  <energy_score>  (458) 
717.6488749734133

>  <distance_score>  (458) 
13.392452380099765

>  <path>  (458) 
/opt/xchem-fragalysis-2/maxwin/BulkDock/SCRATCH/511024/C55963-P103/C55963-P103.minimised.mol

>  <scratch_subdir>  (458) 
/opt/xchem-fragalysis-2/maxwin/BulkDock/SCRATCH/511024/C55963-P103

>  <fragmenstein_runtime>  (458) 
9.087634801864624

>  <fragmenstein_outcome>  (458) 
too moved

>  <fragmenstein_mode>  (458) 
expansion

>  <fragmenstein_error>  (458) 


$$$$
C55964-P7
     RDKit          3D

 36 38  0  0  0  0  0  0  0  0999 V2000
    2.4124   -2.1931   29.3759 C   0  0  0  0  0  0  0  0  0  0  0  0
    1.3199   -1.4582   28.6005 C   0  0  0  0  0  0  0  0  0  0  0  0
    1.8906   -0.1706   27.9417 C   0  0  0  0  0  0  0  0  0  0  0  0
    2.9555   -0.2980   26.9363 N   0  0  0  0  0  0  0  0  0  0  0  0
    4.1168    0.5198   26.6804 C   0  0  0  0  0  0  0  0  0  0  0  0
    4.5488    1.4626   27.2727 O   0  0  0  0  0  0  0  0  0  0  0  0
    4.8485    0.1782   25.4344 C   0  0  0  0  0  0  0  0  0  0  0  0
    4.7588   -0.8546   24.4922 C   0  0  0  0  0  0  0  0  0  0  0  0
    5.6777   -0.7365   23.4535 N   0  0  0  0  0  0  0  0  0  0  0  0
    6.3128    0.3585   23.7513 C   0  0  0  0  0  0  0  0  0  0  0  0
    7.6067    1.2515   23.0117 S   0  0  0  0  0  0  0  0  0  0  0  0
    7.5269    2.4075   24.3368 C   0  0  0  0  0  0  0  0  0  0  0  0
    6.5757    2.1019   25.2381 C   0  0  0  0  0  0  0  0  0  0  0  0
    5.8900    0.9445   24.9085 N   0  0  0  0  0  0  0  0  0  0  0  0
    0.1634   -1.1866   29.4948 N   0  0  0  0  0  0  0  0  0  0  0  0
   -0.7357   -2.0845   30.1771 C   0  0  0  0  0  0  0  0  0  0  0  0
   -0.8281   -3.2760   30.1345 O   0  0  0  0  0  0  0  0  0  0  0  0
   -1.7061   -1.4044   31.0599 C   0  0  0  0  0  0  0  0  0  0  0  0
   -1.9419   -0.0971   31.4578 C   0  0  0  0  0  0  0  0  0  0  0  0
   -3.0320   -0.1596   32.3482 C   0  0  0  0  0  0  0  0  0  0  0  0
   -3.5657    0.9172   32.9394 F   0  0  0  0  0  0  0  0  0  0  0  0
   -3.4964   -1.3905   32.5202 N   0  0  0  0  0  0  0  0  0  0  0  0
   -2.6835   -2.1255   31.7335 N   0  0  0  0  0  0  0  0  0  0  0  0
    2.0304   -3.1259   29.8044 H   0  0  0  0  0  0  0  0  0  0  0  0
    3.2557   -2.4481   28.7261 H   0  0  0  0  0  0  0  0  0  0  0  0
    2.7882   -1.5805   30.2027 H   0  0  0  0  0  0  0  0  0  0  0  0
    0.9475   -2.1310   27.8204 H   0  0  0  0  0  0  0  0  0  0  0  0
    1.0724    0.3627   27.4442 H   0  0  0  0  0  0  0  0  0  0  0  0
    2.2628    0.5080   28.7189 H   0  0  0  0  0  0  0  0  0  0  0  0
    2.8456   -0.9636   26.1779 H   0  0  0  0  0  0  0  0  0  0  0  0
    4.0681   -1.6912   24.4983 H   0  0  0  0  0  0  0  0  0  0  0  0
    8.1894    3.2614   24.3924 H   0  0  0  0  0  0  0  0  0  0  0  0
    6.3353    2.6557   26.1333 H   0  0  0  0  0  0  0  0  0  0  0  0
   -0.0984   -0.2340   29.7070 H   0  0  0  0  0  0  0  0  0  0  0  0
   -1.4038    0.7908   31.1643 H   0  0  0  0  0  0  0  0  0  0  0  0
   -2.8340   -3.1284   31.6764 H   0  0  0  0  0  0  0  0  0  0  0  0
  1  2  1  0
  2  3  1  0
  3  4  1  0
  4  5  1  0
  5  6  2  0
  5  7  1  0
  7  8  2  0
  8  9  1  0
  9 10  2  0
 10 11  1  0
 11 12  1  0
 12 13  2  0
 13 14  1  0
  2 15  1  0
 15 16  1  0
 16 17  2  0
 16 18  1  0
 18 19  2  0
 19 20  1  0
 20 21  1  0
 20 22  2  0
 22 23  1  0
 14  7  1  0
 23 18  1  0
 14 10  1  0
  1 24  1  0
  1 25  1  0
  1 26  1  0
  2 27  1  0
  3 28  1  0
  3 29  1  0
  4 30  1  0
  8 31  1  0
 12 32  1  0
 13 33  1  0
 15 34  1  0
 19 35  1  0
 23 36  1  0
M  END
>  <Energy>  (459) 
-35.871743568887155

>  <compound_id>  (459) 
55964

>  <target_id>  (459) 
1

>  <reference_id>  (459) 
7

>  <inspiration_ids>  (459) 
[7, 103]

>  <energy_score>  (459) 
-32.635060003787686

>  <distance_score>  (459) 
12.080920976577488

>  <path>  (459) 
/opt/xchem-fragalysis-2/maxwin/BulkDock/SCRATCH/511024/C55964-P7/C55964-P7.minimised.mol

>  <scratch_subdir>  (459) 
/opt/xchem-fragalysis-2/maxwin/BulkDock/SCRATCH/511024/C55964-P7

>  <fragmenstein_runtime>  (459) 
11.075340509414673

>  <fragmenstein_outcome>  (459) 
too moved

>  <fragmenstein_mode>  (459) 
expansion

>  <fragmenstein_error>  (459) 


$$$$
C55964-P103
     RDKit          3D

 36 38  0  0  0  0  0  0  0  0999 V2000
    3.2006   -1.4948   29.2926 C   0  0  0  0  0  0  0  0  0  0  0  0
    2.1244   -0.9518   28.3489 C   0  0  0  0  0  0  0  0  0  0  0  0
    2.5692    0.4001   27.7137 C   0  0  0  0  0  0  0  0  0  0  0  0
    3.6874    0.4039   26.7485 N   0  0  0  0  0  0  0  0  0  0  0  0
    4.4170   -0.6770   26.1466 C   0  0  0  0  0  0  0  0  0  0  0  0
    4.2542   -1.8579   26.2129 O   0  0  0  0  0  0  0  0  0  0  0  0
    5.5652   -0.2174   25.3540 C   0  0  0  0  0  0  0  0  0  0  0  0
    6.8500   -0.7766   25.3427 C   0  0  0  0  0  0  0  0  0  0  0  0
    7.7061   -0.1607   24.4527 N   0  0  0  0  0  0  0  0  0  0  0  0
    6.9393    0.7213   23.8853 C   0  0  0  0  0  0  0  0  0  0  0  0
    7.1722    1.8780   22.6174 S   0  0  0  0  0  0  0  0  0  0  0  0
    5.4739    2.3347   22.7775 C   0  0  0  0  0  0  0  0  0  0  0  0
    4.8256    1.6419   23.7342 C   0  0  0  0  0  0  0  0  0  0  0  0
    5.6558    0.7355   24.3614 N   0  0  0  0  0  0  0  0  0  0  0  0
    0.8455   -0.8791   29.1012 N   0  0  0  0  0  0  0  0  0  0  0  0
    0.4490   -0.0544   30.2113 C   0  0  0  0  0  0  0  0  0  0  0  0
    1.0214    0.8385   30.7605 O   0  0  0  0  0  0  0  0  0  0  0  0
   -0.8451   -0.4519   30.8201 C   0  0  0  0  0  0  0  0  0  0  0  0
   -1.6282    0.2900   31.7056 C   0  0  0  0  0  0  0  0  0  0  0  0
   -2.6698   -0.5530   32.1114 C   0  0  0  0  0  0  0  0  0  0  0  0
   -3.6359   -0.1892   32.9631 F   0  0  0  0  0  0  0  0  0  0  0  0
   -2.5915   -1.7588   31.5559 N   0  0  0  0  0  0  0  0  0  0  0  0
   -1.4933   -1.6666   30.7724 N   0  0  0  0  0  0  0  0  0  0  0  0
    4.1584   -1.6404   28.7878 H   0  0  0  0  0  0  0  0  0  0  0  0
    3.3684   -0.8147   30.1350 H   0  0  0  0  0  0  0  0  0  0  0  0
    2.8939   -2.4610   29.7088 H   0  0  0  0  0  0  0  0  0  0  0  0
    1.9477   -1.6808   27.5506 H   0  0  0  0  0  0  0  0  0  0  0  0
    2.8496    1.1066   28.5037 H   0  0  0  0  0  0  0  0  0  0  0  0
    1.7205    0.8516   27.1890 H   0  0  0  0  0  0  0  0  0  0  0  0
    4.1580    1.2755   26.5411 H   0  0  0  0  0  0  0  0  0  0  0  0
    7.1901   -1.6023   25.9580 H   0  0  0  0  0  0  0  0  0  0  0  0
    5.0342    3.0987   22.1497 H   0  0  0  0  0  0  0  0  0  0  0  0
    3.7874    1.7334   24.0131 H   0  0  0  0  0  0  0  0  0  0  0  0
    0.0765   -1.4814   28.8471 H   0  0  0  0  0  0  0  0  0  0  0  0
   -1.4255    1.2991   32.0318 H   0  0  0  0  0  0  0  0  0  0  0  0
   -1.2117   -2.4973   30.2634 H   0  0  0  0  0  0  0  0  0  0  0  0
  1  2  1  0
  2  3  1  0
  3  4  1  0
  4  5  1  0
  5  6  2  0
  5  7  1  0
  7  8  2  0
  8  9  1  0
  9 10  2  0
 10 11  1  0
 11 12  1  0
 12 13  2  0
 13 14  1  0
  2 15  1  0
 15 16  1  0
 16 17  2  0
 16 18  1  0
 18 19  2  0
 19 20  1  0
 20 21  1  0
 20 22  2  0
 22 23  1  0
 14  7  1  0
 23 18  1  0
 14 10  1  0
  1 24  1  0
  1 25  1  0
  1 26  1  0
  2 27  1  0
  3 28  1  0
  3 29  1  0
  4 30  1  0
  8 31  1  0
 12 32  1  0
 13 33  1  0
 15 34  1  0
 19 35  1  0
 23 36  1  0
M  END
>  <Energy>  (460) 
-25.85723823863923

>  <compound_id>  (460) 
55964

>  <target_id>  (460) 
1

>  <reference_id>  (460) 
103

>  <inspiration_ids>  (460) 
[7, 103]

>  <energy_score>  (460) 
-22.620554673540084

>  <distance_score>  (460) 
11.963214372965467

>  <path>  (460) 
/opt/xchem-fragalysis-2/maxwin/BulkDock/SCRATCH/511024/C55964-P103/C55964-P103.minimised.mol

>  <scratch_subdir>  (460) 
/opt/xchem-fragalysis-2/maxwin/BulkDock/SCRATCH/511024/C55964-P103

>  <fragmenstein_runtime>  (460) 
12.976178169250488

>  <fragmenstein_outcome>  (460) 
too moved

>  <fragmenstein_mode>  (460) 
expansion

>  <fragmenstein_error>  (460) 


$$$$
C55965-P7
     RDKit          3D

 42 44  0  0  0  0  0  0  0  0999 V2000
    1.1578   -2.9413   28.3757 C   0  0  0  0  0  0  0  0  0  0  0  0
    1.5677   -1.6256   29.0292 C   0  0  0  0  0  0  0  0  0  0  0  0
    2.1230   -0.5992   27.9564 C   0  0  0  0  0  0  0  0  0  0  0  0
    3.2253   -1.0222   27.0449 N   0  0  0  0  0  0  0  0  0  0  0  0
    4.2432   -0.2382   26.3437 C   0  0  0  0  0  0  0  0  0  0  0  0
    4.4934    0.9313   26.3906 O   0  0  0  0  0  0  0  0  0  0  0  0
    5.1178   -1.0734   25.4725 C   0  0  0  0  0  0  0  0  0  0  0  0
    5.5562   -2.3773   25.6544 C   0  0  0  0  0  0  0  0  0  0  0  0
    6.2702   -2.8740   24.5961 N   0  0  0  0  0  0  0  0  0  0  0  0
    6.3488   -1.8733   23.7550 C   0  0  0  0  0  0  0  0  0  0  0  0
    6.9200   -1.8245   22.4476 C   0  0  0  0  0  0  0  0  0  0  0  0
    6.9885   -0.6531   21.7922 C   0  0  0  0  0  0  0  0  0  0  0  0
    6.5302    0.5763   22.4143 C   0  0  0  0  0  0  0  0  0  0  0  0
    5.9310    0.5242   23.6204 C   0  0  0  0  0  0  0  0  0  0  0  0
    5.7888   -0.7029   24.2849 N   0  0  0  0  0  0  0  0  0  0  0  0
    0.4402   -1.1033   29.8873 N   0  0  0  0  0  0  0  0  0  0  0  0
   -0.6441   -1.8060   30.5799 C   0  0  0  0  0  0  0  0  0  0  0  0
   -0.9514   -2.9629   30.5720 O   0  0  0  0  0  0  0  0  0  0  0  0
   -1.4735   -0.9285   31.4696 C   0  0  0  0  0  0  0  0  0  0  0  0
   -1.2977    0.3854   31.8920 C   0  0  0  0  0  0  0  0  0  0  0  0
   -2.3544    0.6789   32.7725 C   0  0  0  0  0  0  0  0  0  0  0  0
   -3.2213   -0.3187   32.8632 N   0  0  0  0  0  0  0  0  0  0  0  0
   -2.6370   -1.3183   32.1568 N   0  0  0  0  0  0  0  0  0  0  0  0
   -3.2820   -2.6144   32.2384 C   0  0  0  0  0  0  0  0  0  0  0  0
    0.2190   -2.8233   27.8304 H   0  0  0  0  0  0  0  0  0  0  0  0
    1.0048   -3.7204   29.1298 H   0  0  0  0  0  0  0  0  0  0  0  0
    1.9207   -3.3159   27.6920 H   0  0  0  0  0  0  0  0  0  0  0  0
    2.3849   -1.8367   29.7295 H   0  0  0  0  0  0  0  0  0  0  0  0
    2.4676    0.3063   28.4690 H   0  0  0  0  0  0  0  0  0  0  0  0
    1.2948   -0.2882   27.3128 H   0  0  0  0  0  0  0  0  0  0  0  0
    3.2450   -1.9752   26.6996 H   0  0  0  0  0  0  0  0  0  0  0  0
    5.3771   -2.9955   26.5217 H   0  0  0  0  0  0  0  0  0  0  0  0
    7.2587   -2.7538   22.0064 H   0  0  0  0  0  0  0  0  0  0  0  0
    7.3628   -0.6027   20.7778 H   0  0  0  0  0  0  0  0  0  0  0  0
    6.6245    1.5124   21.8744 H   0  0  0  0  0  0  0  0  0  0  0  0
    5.5091    1.3951   24.1059 H   0  0  0  0  0  0  0  0  0  0  0  0
    0.4553   -0.1407   30.1888 H   0  0  0  0  0  0  0  0  0  0  0  0
   -0.4828    1.0489   31.6419 H   0  0  0  0  0  0  0  0  0  0  0  0
   -2.5317    1.5846   33.3378 H   0  0  0  0  0  0  0  0  0  0  0  0
   -3.9711   -2.6235   33.0880 H   0  0  0  0  0  0  0  0  0  0  0  0
   -3.8376   -2.7695   31.3161 H   0  0  0  0  0  0  0  0  0  0  0  0
   -2.5245   -3.3843   32.3922 H   0  0  0  0  0  0  0  0  0  0  0  0
  1  2  1  0
  2  3  1  0
  3  4  1  0
  4  5  1  0
  5  6  2  0
  5  7  1  0
  7  8  2  0
  8  9  1  0
  9 10  2  0
 10 11  1  0
 11 12  2  0
 12 13  1  0
 13 14  2  0
 14 15  1  0
  2 16  1  0
 16 17  1  0
 17 18  2  0
 17 19  1  0
 19 20  2  0
 20 21  1  0
 21 22  2  0
 22 23  1  0
 23 24  1  0
 15  7  1  0
 23 19  1  0
 15 10  1  0
  1 25  1  0
  1 26  1  0
  1 27  1  0
  2 28  1  0
  3 29  1  0
  3 30  1  0
  4 31  1  0
  8 32  1  0
 11 33  1  0
 12 34  1  0
 13 35  1  0
 14 36  1  0
 16 37  1  0
 20 38  1  0
 21 39  1  0
 24 40  1  0
 24 41  1  0
 24 42  1  0
M  END
>  <Energy>  (461) 
-10.187606054269089

>  <compound_id>  (461) 
55965

>  <target_id>  (461) 
1

>  <reference_id>  (461) 
7

>  <inspiration_ids>  (461) 
[7, 103]

>  <energy_score>  (461) 
-12.906451935827874

>  <distance_score>  (461) 
11.17695201535414

>  <path>  (461) 
/opt/xchem-fragalysis-2/maxwin/BulkDock/SCRATCH/511024/C55965-P7/C55965-P7.minimised.mol

>  <scratch_subdir>  (461) 
/opt/xchem-fragalysis-2/maxwin/BulkDock/SCRATCH/511024/C55965-P7

>  <fragmenstein_runtime>  (461) 
21.9173846244812

>  <fragmenstein_outcome>  (461) 
too moved

>  <fragmenstein_mode>  (461) 
expansion

>  <fragmenstein_error>  (461) 


$$$$
C55965-P103
     RDKit          3D

 42 44  0  0  0  0  0  0  0  0999 V2000
    0.5528    0.3435   28.0930 C   0  0  0  0  0  0  0  0  0  0  0  0
    1.1663   -0.7517   28.9671 C   0  0  0  0  0  0  0  0  0  0  0  0
    1.9586   -1.7901   28.0897 C   0  0  0  0  0  0  0  0  0  0  0  0
    3.0351   -1.3187   27.1861 N   0  0  0  0  0  0  0  0  0  0  0  0
    4.0164   -2.0592   26.4041 C   0  0  0  0  0  0  0  0  0  0  0  0
    4.2494   -3.2320   26.3576 O   0  0  0  0  0  0  0  0  0  0  0  0
    4.8819   -1.1876   25.5594 C   0  0  0  0  0  0  0  0  0  0  0  0
    5.2656    0.1397   25.7171 C   0  0  0  0  0  0  0  0  0  0  0  0
    6.1290    0.5815   24.7448 N   0  0  0  0  0  0  0  0  0  0  0  0
    6.2825   -0.4432   23.9418 C   0  0  0  0  0  0  0  0  0  0  0  0
    7.0260   -0.5526   22.7261 C   0  0  0  0  0  0  0  0  0  0  0  0
    7.0703   -1.7236   22.0669 C   0  0  0  0  0  0  0  0  0  0  0  0
    6.3902   -2.8965   22.5789 C   0  0  0  0  0  0  0  0  0  0  0  0
    5.6616   -2.7915   23.7065 C   0  0  0  0  0  0  0  0  0  0  0  0
    5.5871   -1.5692   24.3952 N   0  0  0  0  0  0  0  0  0  0  0  0
    0.0867   -1.3527   29.8170 N   0  0  0  0  0  0  0  0  0  0  0  0
   -0.8192   -0.7431   30.7816 C   0  0  0  0  0  0  0  0  0  0  0  0
   -0.9814    0.4043   31.0796 O   0  0  0  0  0  0  0  0  0  0  0  0
   -1.6972   -1.7267   31.4898 C   0  0  0  0  0  0  0  0  0  0  0  0
   -1.6548   -3.1123   31.5820 C   0  0  0  0  0  0  0  0  0  0  0  0
   -2.7284   -3.5036   32.4063 C   0  0  0  0  0  0  0  0  0  0  0  0
   -3.4534   -2.4686   32.8052 N   0  0  0  0  0  0  0  0  0  0  0  0
   -2.7934   -1.4035   32.2996 N   0  0  0  0  0  0  0  0  0  0  0  0
   -3.2961   -0.1028   32.6746 C   0  0  0  0  0  0  0  0  0  0  0  0
    0.0663    1.1102   28.7050 H   0  0  0  0  0  0  0  0  0  0  0  0
   -0.2093   -0.0698   27.4249 H   0  0  0  0  0  0  0  0  0  0  0  0
    1.3103    0.8495   27.4880 H   0  0  0  0  0  0  0  0  0  0  0  0
    1.8670   -0.2774   29.6641 H   0  0  0  0  0  0  0  0  0  0  0  0
    1.2513   -2.3424   27.4647 H   0  0  0  0  0  0  0  0  0  0  0  0
    2.4162   -2.5390   28.7470 H   0  0  0  0  0  0  0  0  0  0  0  0
    3.0610   -0.3464   26.9123 H   0  0  0  0  0  0  0  0  0  0  0  0
    4.9767    0.8087   26.5171 H   0  0  0  0  0  0  0  0  0  0  0  0
    7.5180    0.3378   22.3545 H   0  0  0  0  0  0  0  0  0  0  0  0
    7.5975   -1.8066   21.1283 H   0  0  0  0  0  0  0  0  0  0  0  0
    6.4588   -3.8319   22.0356 H   0  0  0  0  0  0  0  0  0  0  0  0
    5.1083   -3.6244   24.1215 H   0  0  0  0  0  0  0  0  0  0  0  0
    0.0139   -2.3574   29.8852 H   0  0  0  0  0  0  0  0  0  0  0  0
   -0.9301   -3.7762   31.1338 H   0  0  0  0  0  0  0  0  0  0  0  0
   -3.0111   -4.5004   32.7210 H   0  0  0  0  0  0  0  0  0  0  0  0
   -4.2897   -0.2007   33.1202 H   0  0  0  0  0  0  0  0  0  0  0  0
   -3.3617    0.5102   31.7771 H   0  0  0  0  0  0  0  0  0  0  0  0
   -2.6028    0.3360   33.3959 H   0  0  0  0  0  0  0  0  0  0  0  0
  1  2  1  0
  2  3  1  0
  3  4  1  0
  4  5  1  0
  5  6  2  0
  5  7  1  0
  7  8  2  0
  8  9  1  0
  9 10  2  0
 10 11  1  0
 11 12  2  0
 12 13  1  0
 13 14  2  0
 14 15  1  0
  2 16  1  0
 16 17  1  0
 17 18  2  0
 17 19  1  0
 19 20  2  0
 20 21  1  0
 21 22  2  0
 22 23  1  0
 23 24  1  0
 15  7  1  0
 23 19  1  0
 15 10  1  0
  1 25  1  0
  1 26  1  0
  1 27  1  0
  2 28  1  0
  3 29  1  0
  3 30  1  0
  4 31  1  0
  8 32  1  0
 11 33  1  0
 12 34  1  0
 13 35  1  0
 14 36  1  0
 16 37  1  0
 20 38  1  0
 21 39  1  0
 24 40  1  0
 24 41  1  0
 24 42  1  0
M  END
>  <Energy>  (462) 
-16.017730605316022

>  <compound_id>  (462) 
55965

>  <target_id>  (462) 
1

>  <reference_id>  (462) 
103

>  <inspiration_ids>  (462) 
[7, 103]

>  <energy_score>  (462) 
-18.736576486877155

>  <distance_score>  (462) 
11.381614126749259

>  <path>  (462) 
/opt/xchem-fragalysis-2/maxwin/BulkDock/SCRATCH/511024/C55965-P103/C55965-P103.minimised.mol

>  <scratch_subdir>  (462) 
/opt/xchem-fragalysis-2/maxwin/BulkDock/SCRATCH/511024/C55965-P103

>  <fragmenstein_runtime>  (462) 
15.639070510864258

>  <fragmenstein_outcome>  (462) 
too moved

>  <fragmenstein_mode>  (462) 
expansion

>  <fragmenstein_error>  (462) 


$$$$
C55966-P7
     RDKit          3D

 42 44  0  0  0  0  0  0  0  0999 V2000
   -5.2042    3.6876   20.1748 C   0  0  0  0  0  0  0  0  0  0  0  0
   -6.2071    3.1874   19.1382 C   0  0  0  0  0  0  0  0  0  0  0  0
   -5.5090    2.2819   18.0253 C   0  0  0  0  0  0  0  0  0  0  0  0
   -4.0538    2.3607   17.6483 N   0  0  0  0  0  0  0  0  0  0  0  0
   -3.2625    1.5627   16.7026 C   0  0  0  0  0  0  0  0  0  0  0  0
   -3.5990    0.7042   15.9393 O   0  0  0  0  0  0  0  0  0  0  0  0
   -1.7090    1.7519   16.7335 C   0  0  0  0  0  0  0  0  0  0  0  0
   -0.8400    2.5386   17.4885 C   0  0  0  0  0  0  0  0  0  0  0  0
    0.4648    2.1092   17.2181 N   0  0  0  0  0  0  0  0  0  0  0  0
    1.6891    2.5030   17.7717 C   0  0  0  0  0  0  0  0  0  0  0  0
    2.8271    1.9081   17.3686 C   0  0  0  0  0  0  0  0  0  0  0  0
    2.7646    0.8707   16.3516 C   0  0  0  0  0  0  0  0  0  0  0  0
    1.5850    0.5018   15.8130 C   0  0  0  0  0  0  0  0  0  0  0  0
    0.3702    1.1206   16.2516 C   0  0  0  0  0  0  0  0  0  0  0  0
   -0.8910    0.9093   15.9355 N   0  0  0  0  0  0  0  0  0  0  0  0
   -7.3728    2.5356   19.8639 N   0  0  0  0  0  0  0  0  0  0  0  0
   -8.3949    3.1083   20.7571 C   0  0  0  0  0  0  0  0  0  0  0  0
   -8.6072    4.2464   21.0687 O   0  0  0  0  0  0  0  0  0  0  0  0
   -9.2327    2.0570   21.4543 C   0  0  0  0  0  0  0  0  0  0  0  0
   -9.5597    0.7554   21.0928 C   0  0  0  0  0  0  0  0  0  0  0  0
  -10.2346    0.1697   22.1814 C   0  0  0  0  0  0  0  0  0  0  0  0
  -10.4377    1.0339   23.1629 N   0  0  0  0  0  0  0  0  0  0  0  0
   -9.8935    2.1870   22.6931 N   0  0  0  0  0  0  0  0  0  0  0  0
  -10.2058    3.3801   23.4450 C   0  0  0  0  0  0  0  0  0  0  0  0
   -4.7924    2.8611   20.7589 H   0  0  0  0  0  0  0  0  0  0  0  0
   -4.3794    4.2310   19.7049 H   0  0  0  0  0  0  0  0  0  0  0  0
   -5.6841    4.3754   20.8792 H   0  0  0  0  0  0  0  0  0  0  0  0
   -6.6296    4.0690   18.6413 H   0  0  0  0  0  0  0  0  0  0  0  0
   -5.6585    1.2317   18.3056 H   0  0  0  0  0  0  0  0  0  0  0  0
   -6.0667    2.4005   17.0882 H   0  0  0  0  0  0  0  0  0  0  0  0
   -3.4557    3.0546   18.0765 H   0  0  0  0  0  0  0  0  0  0  0  0
   -1.0079    3.2982   18.2358 H   0  0  0  0  0  0  0  0  0  0  0  0
    1.6592    3.2642   18.5401 H   0  0  0  0  0  0  0  0  0  0  0  0
    3.7795    2.1764   17.8029 H   0  0  0  0  0  0  0  0  0  0  0  0
    3.6896    0.3896   16.0483 H   0  0  0  0  0  0  0  0  0  0  0  0
    1.5205   -0.2769   15.0615 H   0  0  0  0  0  0  0  0  0  0  0  0
   -7.4329    1.5299   19.8960 H   0  0  0  0  0  0  0  0  0  0  0  0
   -9.3101    0.2677   20.1619 H   0  0  0  0  0  0  0  0  0  0  0  0
  -10.6026   -0.8426   22.2831 H   0  0  0  0  0  0  0  0  0  0  0  0
  -10.9550    3.9376   22.8753 H   0  0  0  0  0  0  0  0  0  0  0  0
  -10.6280    3.1116   24.4160 H   0  0  0  0  0  0  0  0  0  0  0  0
   -9.3166    3.9940   23.5696 H   0  0  0  0  0  0  0  0  0  0  0  0
  1  2  1  0
  2  3  1  0
  3  4  1  0
  4  5  1  0
  5  6  2  0
  5  7  1  0
  7  8  2  0
  8  9  1  0
  9 10  1  0
 10 11  2  0
 11 12  1  0
 12 13  2  0
 13 14  1  0
 14 15  2  0
  2 16  1  0
 16 17  1  0
 17 18  2  0
 17 19  1  0
 19 20  2  0
 20 21  1  0
 21 22  2  0
 22 23  1  0
 23 24  1  0
 15  7  1  0
 23 19  1  0
 14  9  1  0
  1 25  1  0
  1 26  1  0
  1 27  1  0
  2 28  1  0
  3 29  1  0
  3 30  1  0
  4 31  1  0
  8 32  1  0
 10 33  1  0
 11 34  1  0
 12 35  1  0
 13 36  1  0
 16 37  1  0
 20 38  1  0
 21 39  1  0
 24 40  1  0
 24 41  1  0
 24 42  1  0
M  END
>  <Energy>  (463) 
58.127271655106064

>  <compound_id>  (463) 
55966

>  <target_id>  (463) 
1

>  <reference_id>  (463) 
7

>  <inspiration_ids>  (463) 
[7, 103]

>  <energy_score>  (463) 
19.508327757391953

>  <distance_score>  (463) 
14.65000871987757

>  <path>  (463) 
/opt/xchem-fragalysis-2/maxwin/BulkDock/SCRATCH/511024/C55966-P7/C55966-P7.minimised.mol

>  <scratch_subdir>  (463) 
/opt/xchem-fragalysis-2/maxwin/BulkDock/SCRATCH/511024/C55966-P7

>  <fragmenstein_runtime>  (463) 
14.859415531158447

>  <fragmenstein_outcome>  (463) 
too moved

>  <fragmenstein_mode>  (463) 
expansion

>  <fragmenstein_error>  (463) 


$$$$
C55966-P103
     RDKit          3D

 42 44  0  0  0  0  0  0  0  0999 V2000
    2.9425    4.5781   24.7081 C   0  0  0  0  0  0  0  0  0  0  0  0
    1.9538    3.6681   23.9771 C   0  0  0  0  0  0  0  0  0  0  0  0
    1.7981    4.1177   22.4781 C   0  0  0  0  0  0  0  0  0  0  0  0
    3.0131    4.1287   21.6212 N   0  0  0  0  0  0  0  0  0  0  0  0
    3.1753    3.8857   20.1968 C   0  0  0  0  0  0  0  0  0  0  0  0
    2.3833    3.5384   19.3720 O   0  0  0  0  0  0  0  0  0  0  0  0
    4.5652    4.1940   19.6502 C   0  0  0  0  0  0  0  0  0  0  0  0
    5.4958    5.1371   20.0673 C   0  0  0  0  0  0  0  0  0  0  0  0
    6.4617    5.2087   19.0789 N   0  0  0  0  0  0  0  0  0  0  0  0
    7.5888    6.0324   18.9836 C   0  0  0  0  0  0  0  0  0  0  0  0
    8.4438    5.8703   17.9558 C   0  0  0  0  0  0  0  0  0  0  0  0
    8.1411    4.8850   16.9324 C   0  0  0  0  0  0  0  0  0  0  0  0
    7.0226    4.1402   16.9968 C   0  0  0  0  0  0  0  0  0  0  0  0
    6.1486    4.2538   18.1244 C   0  0  0  0  0  0  0  0  0  0  0  0
    5.0521    3.6086   18.4603 N   0  0  0  0  0  0  0  0  0  0  0  0
    0.6911    3.5987   24.7854 N   0  0  0  0  0  0  0  0  0  0  0  0
   -0.5697    2.9786   24.5082 C   0  0  0  0  0  0  0  0  0  0  0  0
   -0.9665    2.4237   23.5265 O   0  0  0  0  0  0  0  0  0  0  0  0
   -1.5246    2.9821   25.6296 C   0  0  0  0  0  0  0  0  0  0  0  0
   -2.8195    3.4856   25.5369 C   0  0  0  0  0  0  0  0  0  0  0  0
   -3.5340    2.9226   26.5926 C   0  0  0  0  0  0  0  0  0  0  0  0
   -2.7520    2.2122   27.3970 N   0  0  0  0  0  0  0  0  0  0  0  0
   -1.5490    2.2475   26.8071 N   0  0  0  0  0  0  0  0  0  0  0  0
   -0.5581    1.3941   27.4135 C   0  0  0  0  0  0  0  0  0  0  0  0
    3.9263    4.5706   24.2298 H   0  0  0  0  0  0  0  0  0  0  0  0
    3.0781    4.2502   25.7449 H   0  0  0  0  0  0  0  0  0  0  0  0
    2.5790    5.6112   24.7343 H   0  0  0  0  0  0  0  0  0  0  0  0
    2.3617    2.6516   23.9849 H   0  0  0  0  0  0  0  0  0  0  0  0
    1.0658    3.4791   21.9729 H   0  0  0  0  0  0  0  0  0  0  0  0
    1.3957    5.1369   22.4454 H   0  0  0  0  0  0  0  0  0  0  0  0
    3.8779    4.4916   21.9940 H   0  0  0  0  0  0  0  0  0  0  0  0
    5.5041    5.8233   20.9008 H   0  0  0  0  0  0  0  0  0  0  0  0
    7.7392    6.7664   19.7663 H   0  0  0  0  0  0  0  0  0  0  0  0
    9.3377    6.4773   17.8461 H   0  0  0  0  0  0  0  0  0  0  0  0
    8.8142    4.8093   16.0825 H   0  0  0  0  0  0  0  0  0  0  0  0
    6.7661    3.4713   16.1840 H   0  0  0  0  0  0  0  0  0  0  0  0
    0.7058    3.8974   25.7547 H   0  0  0  0  0  0  0  0  0  0  0  0
   -3.2216    4.0612   24.7135 H   0  0  0  0  0  0  0  0  0  0  0  0
   -4.5955    2.9837   26.7827 H   0  0  0  0  0  0  0  0  0  0  0  0
    0.4055    1.5629   26.9291 H   0  0  0  0  0  0  0  0  0  0  0  0
   -0.4795    1.6472   28.4742 H   0  0  0  0  0  0  0  0  0  0  0  0
   -0.8683    0.3539   27.2877 H   0  0  0  0  0  0  0  0  0  0  0  0
  1  2  1  0
  2  3  1  0
  3  4  1  0
  4  5  1  0
  5  6  2  0
  5  7  1  0
  7  8  2  0
  8  9  1  0
  9 10  1  0
 10 11  2  0
 11 12  1  0
 12 13  2  0
 13 14  1  0
 14 15  2  0
  2 16  1  0
 16 17  1  0
 17 18  2  0
 17 19  1  0
 19 20  2  0
 20 21  1  0
 21 22  2  0
 22 23  1  0
 23 24  1  0
 15  7  1  0
 23 19  1  0
 14  9  1  0
  1 25  1  0
  1 26  1  0
  1 27  1  0
  2 28  1  0
  3 29  1  0
  3 30  1  0
  4 31  1  0
  8 32  1  0
 10 33  1  0
 11 34  1  0
 12 35  1  0
 13 36  1  0
 16 37  1  0
 20 38  1  0
 21 39  1  0
 24 40  1  0
 24 41  1  0
 24 42  1  0
M  END
>  <Energy>  (464) 
53.776364406323495

>  <compound_id>  (464) 
55966

>  <target_id>  (464) 
1

>  <reference_id>  (464) 
103

>  <inspiration_ids>  (464) 
[7, 103]

>  <energy_score>  (464) 
15.15742050860834

>  <distance_score>  (464) 
12.299402280366303

>  <path>  (464) 
/opt/xchem-fragalysis-2/maxwin/BulkDock/SCRATCH/511024/C55966-P103/C55966-P103.minimised.mol

>  <scratch_subdir>  (464) 
/opt/xchem-fragalysis-2/maxwin/BulkDock/SCRATCH/511024/C55966-P103

>  <fragmenstein_runtime>  (464) 
12.7190260887146

>  <fragmenstein_outcome>  (464) 
too moved

>  <fragmenstein_mode>  (464) 
expansion

>  <fragmenstein_error>  (464) 


$$$$
C55967-P7
     RDKit          3D

 42 44  0  0  0  0  0  0  0  0999 V2000
   -1.3204  -10.1717   29.8088 C   0  0  0  0  0  0  0  0  0  0  0  0
   -1.9964   -8.8154   29.6604 C   0  0  0  0  0  0  0  0  0  0  0  0
   -2.0365   -8.3553   28.2426 C   0  0  0  0  0  0  0  0  0  0  0  0
   -0.9537   -7.8776   27.4529 C   0  0  0  0  0  0  0  0  0  0  0  0
   -1.4058   -7.8276   26.1455 C   0  0  0  0  0  0  0  0  0  0  0  0
   -0.8112   -7.5512   24.8190 C   0  0  0  0  0  0  0  0  0  0  0  0
   -1.5891   -7.3828   23.9281 O   0  0  0  0  0  0  0  0  0  0  0  0
    0.6229   -7.6215   24.8082 N   0  0  0  0  0  0  0  0  0  0  0  0
    1.5883   -7.6072   23.6845 C   0  0  0  0  0  0  0  0  0  0  0  0
    2.9437   -8.1279   24.1476 C   0  0  0  0  0  0  0  0  0  0  0  0
    1.6700   -6.3053   22.8117 C   0  0  0  0  0  0  0  0  0  0  0  0
    2.8927   -5.4879   22.8514 N   0  0  0  0  0  0  0  0  0  0  0  0
    4.1675   -5.6672   22.2102 C   0  0  0  0  0  0  0  0  0  0  0  0
    4.5836   -6.5669   21.5454 O   0  0  0  0  0  0  0  0  0  0  0  0
    5.0897   -4.5431   22.3887 C   0  0  0  0  0  0  0  0  0  0  0  0
    6.4399   -4.6069   22.7580 C   0  0  0  0  0  0  0  0  0  0  0  0
    7.1003   -3.3944   22.6592 N   0  0  0  0  0  0  0  0  0  0  0  0
    6.1546   -2.6043   22.2371 C   0  0  0  0  0  0  0  0  0  0  0  0
    6.1011   -0.9212   21.8012 S   0  0  0  0  0  0  0  0  0  0  0  0
    4.4226   -1.1569   21.2957 C   0  0  0  0  0  0  0  0  0  0  0  0
    3.9785   -2.4142   21.4817 C   0  0  0  0  0  0  0  0  0  0  0  0
    4.9545   -3.2258   22.0164 N   0  0  0  0  0  0  0  0  0  0  0  0
   -2.7338   -8.1944   26.2657 N   0  0  0  0  0  0  0  0  0  0  0  0
   -3.1581   -8.4406   27.5206 N   0  0  0  0  0  0  0  0  0  0  0  0
   -0.2910  -10.1521   29.4384 H   0  0  0  0  0  0  0  0  0  0  0  0
   -1.8603  -10.9421   29.2474 H   0  0  0  0  0  0  0  0  0  0  0  0
   -1.2983  -10.4711   30.8614 H   0  0  0  0  0  0  0  0  0  0  0  0
   -1.4729   -8.0722   30.2725 H   0  0  0  0  0  0  0  0  0  0  0  0
   -3.0145   -8.9061   30.0525 H   0  0  0  0  0  0  0  0  0  0  0  0
    0.0548   -7.7203   27.7953 H   0  0  0  0  0  0  0  0  0  0  0  0
    0.9564   -7.6922   25.7602 H   0  0  0  0  0  0  0  0  0  0  0  0
    1.1658   -8.3675   23.0128 H   0  0  0  0  0  0  0  0  0  0  0  0
    3.5907   -8.3531   23.2949 H   0  0  0  0  0  0  0  0  0  0  0  0
    3.4523   -7.4013   24.7857 H   0  0  0  0  0  0  0  0  0  0  0  0
    2.8305   -9.0517   24.7259 H   0  0  0  0  0  0  0  0  0  0  0  0
    1.6074   -6.6312   21.7650 H   0  0  0  0  0  0  0  0  0  0  0  0
    0.8076   -5.6560   22.9741 H   0  0  0  0  0  0  0  0  0  0  0  0
    2.8579   -4.5601   23.2661 H   0  0  0  0  0  0  0  0  0  0  0  0
    6.9616   -5.4980   23.0847 H   0  0  0  0  0  0  0  0  0  0  0  0
    3.8258   -0.3486   20.8954 H   0  0  0  0  0  0  0  0  0  0  0  0
    2.9948   -2.7963   21.2556 H   0  0  0  0  0  0  0  0  0  0  0  0
   -3.3874   -8.3070   25.4966 H   0  0  0  0  0  0  0  0  0  0  0  0
  1  2  1  0
  2  3  1  0
  3  4  1  0
  4  5  2  0
  5  6  1  0
  6  7  2  0
  6  8  1  0
  8  9  1  0
  9 10  1  0
  9 11  1  0
 11 12  1  0
 12 13  1  0
 13 14  2  0
 13 15  1  0
 15 16  2  0
 16 17  1  0
 17 18  2  0
 18 19  1  0
 19 20  1  0
 20 21  2  0
 21 22  1  0
  5 23  1  0
 23 24  1  0
 24  3  2  0
 22 15  1  0
 22 18  1  0
  1 25  1  0
  1 26  1  0
  1 27  1  0
  2 28  1  0
  2 29  1  0
  4 30  1  0
  8 31  1  0
  9 32  1  0
 10 33  1  0
 10 34  1  0
 10 35  1  0
 11 36  1  0
 11 37  1  0
 12 38  1  0
 16 39  1  0
 20 40  1  0
 21 41  1  0
 23 42  1  0
M  END
>  <Energy>  (465) 
-17.810579677359506

>  <compound_id>  (465) 
55967

>  <target_id>  (465) 
1

>  <reference_id>  (465) 
7

>  <inspiration_ids>  (465) 
[7, 103]

>  <energy_score>  (465) 
-24.296802546471667

>  <distance_score>  (465) 
13.376835068955032

>  <path>  (465) 
/opt/xchem-fragalysis-2/maxwin/BulkDock/SCRATCH/511024/C55967-P7/C55967-P7.minimised.mol

>  <scratch_subdir>  (465) 
/opt/xchem-fragalysis-2/maxwin/BulkDock/SCRATCH/511024/C55967-P7

>  <fragmenstein_runtime>  (465) 
14.273729085922241

>  <fragmenstein_outcome>  (465) 
too moved

>  <fragmenstein_mode>  (465) 
expansion

>  <fragmenstein_error>  (465) 


$$$$
C55967-P103
     RDKit          3D

 42 44  0  0  0  0  0  0  0  0999 V2000
   -5.9501    4.3526   24.7598 C   0  0  0  0  0  0  0  0  0  0  0  0
   -5.2740    3.8798   26.0399 C   0  0  0  0  0  0  0  0  0  0  0  0
   -3.8319    3.5162   25.8890 C   0  0  0  0  0  0  0  0  0  0  0  0
   -2.8676    4.1371   25.0497 C   0  0  0  0  0  0  0  0  0  0  0  0
   -1.6945    3.4124   25.1784 C   0  0  0  0  0  0  0  0  0  0  0  0
   -0.3687    3.4483   24.5303 C   0  0  0  0  0  0  0  0  0  0  0  0
    0.4917    2.7919   25.0387 O   0  0  0  0  0  0  0  0  0  0  0  0
   -0.3569    4.2415   23.3291 N   0  0  0  0  0  0  0  0  0  0  0  0
    0.6892    4.4204   22.2878 C   0  0  0  0  0  0  0  0  0  0  0  0
    0.4995    3.3527   21.2137 C   0  0  0  0  0  0  0  0  0  0  0  0
    2.1433    4.4484   22.8415 C   0  0  0  0  0  0  0  0  0  0  0  0
    3.2907    4.5077   21.9219 N   0  0  0  0  0  0  0  0  0  0  0  0
    3.4106    5.0487   20.5958 C   0  0  0  0  0  0  0  0  0  0  0  0
    2.5873    5.5187   19.8694 O   0  0  0  0  0  0  0  0  0  0  0  0
    4.7996    5.0110   20.1113 C   0  0  0  0  0  0  0  0  0  0  0  0
    6.0235    5.1716   20.7712 C   0  0  0  0  0  0  0  0  0  0  0  0
    7.1111    5.1821   19.9119 N   0  0  0  0  0  0  0  0  0  0  0  0
    6.5557    4.9898   18.7494 C   0  0  0  0  0  0  0  0  0  0  0  0
    7.1806    4.8016   17.1408 S   0  0  0  0  0  0  0  0  0  0  0  0
    5.5172    4.6127   16.5737 C   0  0  0  0  0  0  0  0  0  0  0  0
    4.6045    4.6833   17.5616 C   0  0  0  0  0  0  0  0  0  0  0  0
    5.1962    4.8859   18.7913 N   0  0  0  0  0  0  0  0  0  0  0  0
   -2.0055    2.4918   26.1609 N   0  0  0  0  0  0  0  0  0  0  0  0
   -3.2854    2.5018   26.5724 N   0  0  0  0  0  0  0  0  0  0  0  0
   -7.0059    4.5696   24.9524 H   0  0  0  0  0  0  0  0  0  0  0  0
   -5.4882    5.2686   24.3771 H   0  0  0  0  0  0  0  0  0  0  0  0
   -5.9019    3.5958   23.9728 H   0  0  0  0  0  0  0  0  0  0  0  0
   -5.8320    3.0181   26.4192 H   0  0  0  0  0  0  0  0  0  0  0  0
   -5.3598    4.6853   26.7767 H   0  0  0  0  0  0  0  0  0  0  0  0
   -3.0446    4.9766   24.3943 H   0  0  0  0  0  0  0  0  0  0  0  0
   -1.2898    4.5946   23.1580 H   0  0  0  0  0  0  0  0  0  0  0  0
    0.4736    5.3952   21.8344 H   0  0  0  0  0  0  0  0  0  0  0  0
    0.8760    2.3883   21.5492 H   0  0  0  0  0  0  0  0  0  0  0  0
    1.0288    3.6015   20.2914 H   0  0  0  0  0  0  0  0  0  0  0  0
   -0.5591    3.2327   20.9578 H   0  0  0  0  0  0  0  0  0  0  0  0
    2.3233    3.5539   23.4470 H   0  0  0  0  0  0  0  0  0  0  0  0
    2.2493    5.3064   23.5156 H   0  0  0  0  0  0  0  0  0  0  0  0
    4.2120    4.2736   22.2672 H   0  0  0  0  0  0  0  0  0  0  0  0
    6.1771    5.3343   21.8319 H   0  0  0  0  0  0  0  0  0  0  0  0
    5.2933    4.4678   15.5249 H   0  0  0  0  0  0  0  0  0  0  0  0
    3.5314    4.6091   17.4693 H   0  0  0  0  0  0  0  0  0  0  0  0
   -1.3757    1.7982   26.5471 H   0  0  0  0  0  0  0  0  0  0  0  0
  1  2  1  0
  2  3  1  0
  3  4  1  0
  4  5  2  0
  5  6  1  0
  6  7  2  0
  6  8  1  0
  8  9  1  0
  9 10  1  0
  9 11  1  0
 11 12  1  0
 12 13  1  0
 13 14  2  0
 13 15  1  0
 15 16  2  0
 16 17  1  0
 17 18  2  0
 18 19  1  0
 19 20  1  0
 20 21  2  0
 21 22  1  0
  5 23  1  0
 23 24  1  0
 24  3  2  0
 22 15  1  0
 22 18  1  0
  1 25  1  0
  1 26  1  0
  1 27  1  0
  2 28  1  0
  2 29  1  0
  4 30  1  0
  8 31  1  0
  9 32  1  0
 10 33  1  0
 10 34  1  0
 10 35  1  0
 11 36  1  0
 11 37  1  0
 12 38  1  0
 16 39  1  0
 20 40  1  0
 21 41  1  0
 23 42  1  0
M  END
>  <Energy>  (466) 
-29.51474678005102

>  <compound_id>  (466) 
55967

>  <target_id>  (466) 
1

>  <reference_id>  (466) 
103

>  <inspiration_ids>  (466) 
[7, 103]

>  <energy_score>  (466) 
-36.00096964916356

>  <distance_score>  (466) 
13.177997757379481

>  <path>  (466) 
/opt/xchem-fragalysis-2/maxwin/BulkDock/SCRATCH/511024/C55967-P103/C55967-P103.minimised.mol

>  <scratch_subdir>  (466) 
/opt/xchem-fragalysis-2/maxwin/BulkDock/SCRATCH/511024/C55967-P103

>  <fragmenstein_runtime>  (466) 
15.800164937973022

>  <fragmenstein_outcome>  (466) 
too moved

>  <fragmenstein_mode>  (466) 
expansion

>  <fragmenstein_error>  (466) 


$$$$
C55971-P7
     RDKit          3D

 26 28  0  0  0  0  0  0  0  0999 V2000
    2.4664   -3.5240   27.6136 O   0  0  0  0  0  0  0  0  0  0  0  0
    2.2862   -2.3384   27.5642 C   0  0  0  0  0  0  0  0  0  0  0  0
    1.2180   -1.5035   28.1532 N   0  0  0  0  0  0  0  0  0  0  0  0
    0.1578   -1.8386   29.0156 C   0  0  0  0  0  0  0  0  0  0  0  0
   -0.0631   -3.1019   29.4159 N   0  0  0  0  0  0  0  0  0  0  0  0
   -1.0714   -3.0500   30.2994 N   0  0  0  0  0  0  0  0  0  0  0  0
   -1.6302   -1.8218   30.4171 C   0  0  0  0  0  0  0  0  0  0  0  0
   -0.8617   -0.9984   29.6213 C   0  0  0  0  0  0  0  0  0  0  0  0
   -1.1659    0.6666   29.4712 Cl  0  0  0  0  0  0  0  0  0  0  0  0
    3.3497   -1.5626   26.8303 C   0  0  0  0  0  0  0  0  0  0  0  0
    3.8077   -0.2613   27.0072 C   0  0  0  0  0  0  0  0  0  0  0  0
    4.9223    0.0376   26.2618 N   0  0  0  0  0  0  0  0  0  0  0  0
    5.1595   -1.0418   25.5521 C   0  0  0  0  0  0  0  0  0  0  0  0
    6.1907   -1.3104   24.5911 C   0  0  0  0  0  0  0  0  0  0  0  0
    6.2461   -2.4971   23.9602 C   0  0  0  0  0  0  0  0  0  0  0  0
    5.2702   -3.5285   24.2506 C   0  0  0  0  0  0  0  0  0  0  0  0
    4.3098   -3.2917   25.1664 C   0  0  0  0  0  0  0  0  0  0  0  0
    4.2344   -2.0546   25.8288 N   0  0  0  0  0  0  0  0  0  0  0  0
    1.4233   -0.5333   27.9792 H   0  0  0  0  0  0  0  0  0  0  0  0
   -1.3249   -3.9099   30.7774 H   0  0  0  0  0  0  0  0  0  0  0  0
   -2.4756   -1.6296   31.0618 H   0  0  0  0  0  0  0  0  0  0  0  0
    3.4247    0.4759   27.7004 H   0  0  0  0  0  0  0  0  0  0  0  0
    6.9180   -0.5345   24.3957 H   0  0  0  0  0  0  0  0  0  0  0  0
    7.0224   -2.7098   23.2344 H   0  0  0  0  0  0  0  0  0  0  0  0
    5.3331   -4.4776   23.7310 H   0  0  0  0  0  0  0  0  0  0  0  0
    3.5600   -4.0271   25.4247 H   0  0  0  0  0  0  0  0  0  0  0  0
  1  2  2  0
  2  3  1  0
  3  4  1  0
  4  5  2  0
  5  6  1  0
  6  7  1  0
  7  8  2  0
  8  9  1  0
  2 10  1  0
 10 11  2  0
 11 12  1  0
 12 13  2  0
 13 14  1  0
 14 15  2  0
 15 16  1  0
 16 17  2  0
 17 18  1  0
  8  4  1  0
 18 10  1  0
 18 13  1  0
  3 19  1  0
  6 20  1  0
  7 21  1  0
 11 22  1  0
 14 23  1  0
 15 24  1  0
 16 25  1  0
 17 26  1  0
M  END
>  <Energy>  (467) 
-8.0778569048263122

>  <compound_id>  (467) 
55971

>  <target_id>  (467) 
1

>  <reference_id>  (467) 
7

>  <inspiration_ids>  (467) 
[7, 103]

>  <energy_score>  (467) 
-38.77256280268629

>  <distance_score>  (467) 
13.220224335835612

>  <path>  (467) 
/opt/xchem-fragalysis-2/maxwin/BulkDock/SCRATCH/511024/C55971-P7/C55971-P7.minimised.mol

>  <scratch_subdir>  (467) 
/opt/xchem-fragalysis-2/maxwin/BulkDock/SCRATCH/511024/C55971-P7

>  <fragmenstein_runtime>  (467) 
6.077861070632935

>  <fragmenstein_outcome>  (467) 
too moved

>  <fragmenstein_mode>  (467) 
expansion

>  <fragmenstein_error>  (467) 


$$$$
C55971-P103
     RDKit          3D

 26 28  0  0  0  0  0  0  0  0999 V2000
    2.1212   -2.8218   27.8410 O   0  0  0  0  0  0  0  0  0  0  0  0
    2.1792   -1.6578   27.5603 C   0  0  0  0  0  0  0  0  0  0  0  0
    1.2612   -0.5582   27.8619 N   0  0  0  0  0  0  0  0  0  0  0  0
    0.0979   -0.5181   28.6399 C   0  0  0  0  0  0  0  0  0  0  0  0
   -0.4571    0.7090   28.7466 N   0  0  0  0  0  0  0  0  0  0  0  0
   -1.5339    0.5716   29.5365 N   0  0  0  0  0  0  0  0  0  0  0  0
   -1.7546   -0.7010   29.9315 C   0  0  0  0  0  0  0  0  0  0  0  0
   -0.7225   -1.4388   29.3861 C   0  0  0  0  0  0  0  0  0  0  0  0
   -0.6079   -3.0993   29.6633 Cl  0  0  0  0  0  0  0  0  0  0  0  0
    3.4075   -1.1644   26.8246 C   0  0  0  0  0  0  0  0  0  0  0  0
    4.0688    0.0583   26.9489 C   0  0  0  0  0  0  0  0  0  0  0  0
    5.2108    0.1538   26.1972 N   0  0  0  0  0  0  0  0  0  0  0  0
    5.2796   -0.9833   25.5451 C   0  0  0  0  0  0  0  0  0  0  0  0
    6.2468   -1.4338   24.5867 C   0  0  0  0  0  0  0  0  0  0  0  0
    6.1438   -2.6585   24.0414 C   0  0  0  0  0  0  0  0  0  0  0  0
    5.0630   -3.5444   24.4285 C   0  0  0  0  0  0  0  0  0  0  0  0
    4.1524   -3.1285   25.3318 C   0  0  0  0  0  0  0  0  0  0  0  0
    4.2302   -1.8457   25.8907 N   0  0  0  0  0  0  0  0  0  0  0  0
    1.6649    0.3063   27.5409 H   0  0  0  0  0  0  0  0  0  0  0  0
   -2.0724    1.4036   29.7594 H   0  0  0  0  0  0  0  0  0  0  0  0
   -2.5858   -0.9733   30.5656 H   0  0  0  0  0  0  0  0  0  0  0  0
    3.7945    0.8805   27.5980 H   0  0  0  0  0  0  0  0  0  0  0  0
    7.0523   -0.7620   24.3213 H   0  0  0  0  0  0  0  0  0  0  0  0
    6.8669   -3.0121   23.3153 H   0  0  0  0  0  0  0  0  0  0  0  0
    5.0067   -4.5321   23.9852 H   0  0  0  0  0  0  0  0  0  0  0  0
    3.3297   -3.7485   25.6595 H   0  0  0  0  0  0  0  0  0  0  0  0
  1  2  2  0
  2  3  1  0
  3  4  1  0
  4  5  2  0
  5  6  1  0
  6  7  1  0
  7  8  2  0
  8  9  1  0
  2 10  1  0
 10 11  2  0
 11 12  1  0
 12 13  2  0
 13 14  1  0
 14 15  2  0
 15 16  1  0
 16 17  2  0
 17 18  1  0
  8  4  1  0
 18 10  1  0
 18 13  1  0
  3 19  1  0
  6 20  1  0
  7 21  1  0
 11 22  1  0
 14 23  1  0
 15 24  1  0
 16 25  1  0
 17 26  1  0
M  END
>  <Energy>  (468) 
-12.344876149202214

>  <compound_id>  (468) 
55971

>  <target_id>  (468) 
1

>  <reference_id>  (468) 
103

>  <inspiration_ids>  (468) 
[7, 103]

>  <energy_score>  (468) 
-43.03958204706187

>  <distance_score>  (468) 
13.369397887317398

>  <path>  (468) 
/opt/xchem-fragalysis-2/maxwin/BulkDock/SCRATCH/511024/C55971-P103/C55971-P103.minimised.mol

>  <scratch_subdir>  (468) 
/opt/xchem-fragalysis-2/maxwin/BulkDock/SCRATCH/511024/C55971-P103

>  <fragmenstein_runtime>  (468) 
5.254707098007202

>  <fragmenstein_outcome>  (468) 
too moved

>  <fragmenstein_mode>  (468) 
expansion

>  <fragmenstein_error>  (468) 


$$$$
C55977-P7
     RDKit          3D

 41 44  0  0  0  0  0  0  0  0999 V2000
    0.1312    3.8989   23.2024 O   0  0  0  0  0  0  0  0  0  0  0  0
    0.9168    4.0312   24.0956 C   0  0  0  0  0  0  0  0  0  0  0  0
    2.3199    4.4449   24.0752 N   0  0  0  0  0  0  0  0  0  0  0  0
    3.1541    4.8088   23.0066 C   0  0  0  0  0  0  0  0  0  0  0  0
    2.8217    4.9049   21.6605 C   0  0  0  0  0  0  0  0  0  0  0  0
    3.8817    5.2613   20.8606 N   0  0  0  0  0  0  0  0  0  0  0  0
    4.9077    5.3274   21.6750 C   0  0  0  0  0  0  0  0  0  0  0  0
    6.2877    5.5556   21.3950 C   0  0  0  0  0  0  0  0  0  0  0  0
    7.1779    5.5944   22.4032 C   0  0  0  0  0  0  0  0  0  0  0  0
    6.7518    5.4218   23.7806 C   0  0  0  0  0  0  0  0  0  0  0  0
    5.4499    5.2079   24.0536 C   0  0  0  0  0  0  0  0  0  0  0  0
    4.5216    5.1247   23.0093 N   0  0  0  0  0  0  0  0  0  0  0  0
    0.3459    3.7027   25.4676 C   0  0  0  0  0  0  0  0  0  0  0  0
    0.8922    3.8021   26.7389 C   0  0  0  0  0  0  0  0  0  0  0  0
   -0.0608    3.4081   27.6471 N   0  0  0  0  0  0  0  0  0  0  0  0
   -1.2068    3.0249   27.0835 N   0  0  0  0  0  0  0  0  0  0  0  0
   -1.0004    3.2072   25.7684 C   0  0  0  0  0  0  0  0  0  0  0  0
   -2.1284    2.9102   24.8040 C   0  0  0  0  0  0  0  0  0  0  0  0
   -2.8859    4.1946   24.4125 C   0  0  0  0  0  0  0  0  0  0  0  0
   -4.3364    3.9247   24.0054 C   0  0  0  0  0  0  0  0  0  0  0  0
   -4.5064    2.5291   23.4157 C   0  0  0  0  0  0  0  0  0  0  0  0
   -4.1473    1.4577   24.3478 N   0  0  0  0  0  0  0  0  0  0  0  0
   -3.1310    1.8637   25.3381 C   0  0  0  0  0  0  0  0  0  0  0  0
    2.7009    4.3665   25.0072 H   0  0  0  0  0  0  0  0  0  0  0  0
    1.8447    4.7308   21.2267 H   0  0  0  0  0  0  0  0  0  0  0  0
    6.5709    5.7176   20.3617 H   0  0  0  0  0  0  0  0  0  0  0  0
    8.2281    5.8054   22.2266 H   0  0  0  0  0  0  0  0  0  0  0  0
    7.4964    5.4826   24.5683 H   0  0  0  0  0  0  0  0  0  0  0  0
    5.0794    5.0707   25.0604 H   0  0  0  0  0  0  0  0  0  0  0  0
    1.8573    4.1309   27.0936 H   0  0  0  0  0  0  0  0  0  0  0  0
    0.0076    3.3842   28.6604 H   0  0  0  0  0  0  0  0  0  0  0  0
   -1.6861    2.4739   23.8987 H   0  0  0  0  0  0  0  0  0  0  0  0
   -2.8844    4.9253   25.2315 H   0  0  0  0  0  0  0  0  0  0  0  0
   -2.3617    4.6794   23.5798 H   0  0  0  0  0  0  0  0  0  0  0  0
   -4.6628    4.6831   23.2845 H   0  0  0  0  0  0  0  0  0  0  0  0
   -4.9873    4.0309   24.8829 H   0  0  0  0  0  0  0  0  0  0  0  0
   -3.8867    2.4336   22.5159 H   0  0  0  0  0  0  0  0  0  0  0  0
   -5.5436    2.3860   23.0923 H   0  0  0  0  0  0  0  0  0  0  0  0
   -4.9776    1.1497   24.8532 H   0  0  0  0  0  0  0  0  0  0  0  0
   -3.6494    2.2605   26.2217 H   0  0  0  0  0  0  0  0  0  0  0  0
   -2.6064    0.9603   25.6691 H   0  0  0  0  0  0  0  0  0  0  0  0
  1  2  2  0
  2  3  1  0
  3  4  1  0
  4  5  2  0
  5  6  1  0
  6  7  2  0
  7  8  1  0
  8  9  2  0
  9 10  1  0
 10 11  2  0
 11 12  1  0
  2 13  1  0
 13 14  2  0
 14 15  1  0
 15 16  1  0
 16 17  2  0
 17 18  1  0
 18 19  1  0
 19 20  1  0
 20 21  1  0
 21 22  1  0
 22 23  1  0
 12  4  1  0
 17 13  1  0
 23 18  1  0
 12  7  1  0
  3 24  1  0
  5 25  1  0
  8 26  1  0
  9 27  1  0
 10 28  1  0
 11 29  1  0
 14 30  1  0
 15 31  1  0
 18 32  1  0
 19 33  1  0
 19 34  1  0
 20 35  1  0
 20 36  1  0
 21 37  1  0
 21 38  1  0
 22 39  1  0
 23 40  1  0
 23 41  1  0
M  END
>  <Energy>  (469) 
83.600049558176622

>  <compound_id>  (469) 
55977

>  <target_id>  (469) 
1

>  <reference_id>  (469) 
7

>  <inspiration_ids>  (469) 
[7, 103]

>  <energy_score>  (469) 
-52.43765505944657

>  <distance_score>  (469) 
14.183348664991035

>  <path>  (469) 
/opt/xchem-fragalysis-2/maxwin/BulkDock/SCRATCH/511024/C55977-P7/C55977-P7.minimised.mol

>  <scratch_subdir>  (469) 
/opt/xchem-fragalysis-2/maxwin/BulkDock/SCRATCH/511024/C55977-P7

>  <fragmenstein_runtime>  (469) 
12.564013004302979

>  <fragmenstein_outcome>  (469) 
too moved

>  <fragmenstein_mode>  (469) 
expansion

>  <fragmenstein_error>  (469) 


$$$$
C55977-P103
     RDKit          3D

 41 44  0  0  0  0  0  0  0  0999 V2000
    0.9800   -1.6181   28.1967 O   0  0  0  0  0  0  0  0  0  0  0  0
    1.3675   -0.5691   28.6219 C   0  0  0  0  0  0  0  0  0  0  0  0
    2.6283    0.1381   28.4050 N   0  0  0  0  0  0  0  0  0  0  0  0
    3.7827   -0.2434   27.7150 C   0  0  0  0  0  0  0  0  0  0  0  0
    3.9743   -1.3708   26.9270 C   0  0  0  0  0  0  0  0  0  0  0  0
    5.2997   -1.5805   26.6363 N   0  0  0  0  0  0  0  0  0  0  0  0
    5.9374   -0.5840   27.1950 C   0  0  0  0  0  0  0  0  0  0  0  0
    7.3361   -0.3239   27.2865 C   0  0  0  0  0  0  0  0  0  0  0  0
    7.7525    0.9055   27.6360 C   0  0  0  0  0  0  0  0  0  0  0  0
    6.7920    1.9464   27.9751 C   0  0  0  0  0  0  0  0  0  0  0  0
    5.4762    1.6535   28.0248 C   0  0  0  0  0  0  0  0  0  0  0  0
    5.0406    0.3754   27.6734 N   0  0  0  0  0  0  0  0  0  0  0  0
    0.3980    0.1096   29.5592 C   0  0  0  0  0  0  0  0  0  0  0  0
    0.5887    1.1391   30.4661 C   0  0  0  0  0  0  0  0  0  0  0  0
   -0.5929    1.3372   31.1328 N   0  0  0  0  0  0  0  0  0  0  0  0
   -1.5735    0.5260   30.7362 N   0  0  0  0  0  0  0  0  0  0  0  0
   -1.0028   -0.2352   29.7862 C   0  0  0  0  0  0  0  0  0  0  0  0
   -1.8318   -1.3088   29.1175 C   0  0  0  0  0  0  0  0  0  0  0  0
   -3.2902   -0.8858   28.8781 C   0  0  0  0  0  0  0  0  0  0  0  0
   -4.0897   -1.9904   28.1781 C   0  0  0  0  0  0  0  0  0  0  0  0
   -3.4703   -3.3812   28.3292 C   0  0  0  0  0  0  0  0  0  0  0  0
   -2.9055   -3.5638   29.6554 N   0  0  0  0  0  0  0  0  0  0  0  0
   -1.7975   -2.6284   29.9251 C   0  0  0  0  0  0  0  0  0  0  0  0
    2.6492    0.9624   28.9881 H   0  0  0  0  0  0  0  0  0  0  0  0
    3.2206   -2.0891   26.6199 H   0  0  0  0  0  0  0  0  0  0  0  0
    8.0321   -1.1141   27.0244 H   0  0  0  0  0  0  0  0  0  0  0  0
    8.8110    1.1417   27.6879 H   0  0  0  0  0  0  0  0  0  0  0  0
    7.1673    2.9314   28.2337 H   0  0  0  0  0  0  0  0  0  0  0  0
    4.7233    2.3713   28.3199 H   0  0  0  0  0  0  0  0  0  0  0  0
    1.4523    1.7328   30.7256 H   0  0  0  0  0  0  0  0  0  0  0  0
   -0.7948    2.0127   31.8641 H   0  0  0  0  0  0  0  0  0  0  0  0
   -1.4089   -1.4975   28.1236 H   0  0  0  0  0  0  0  0  0  0  0  0
   -3.3363    0.0363   28.2859 H   0  0  0  0  0  0  0  0  0  0  0  0
   -3.7791   -0.6593   29.8353 H   0  0  0  0  0  0  0  0  0  0  0  0
   -4.1748   -1.7593   27.1094 H   0  0  0  0  0  0  0  0  0  0  0  0
   -5.1120   -1.9893   28.5768 H   0  0  0  0  0  0  0  0  0  0  0  0
   -2.7002   -3.5434   27.5676 H   0  0  0  0  0  0  0  0  0  0  0  0
   -4.2441   -4.1365   28.1525 H   0  0  0  0  0  0  0  0  0  0  0  0
   -2.5777   -4.5196   29.7876 H   0  0  0  0  0  0  0  0  0  0  0  0
   -1.8056   -2.4228   31.0024 H   0  0  0  0  0  0  0  0  0  0  0  0
   -0.8469   -3.1374   29.7207 H   0  0  0  0  0  0  0  0  0  0  0  0
  1  2  2  0
  2  3  1  0
  3  4  1  0
  4  5  2  0
  5  6  1  0
  6  7  2  0
  7  8  1  0
  8  9  2  0
  9 10  1  0
 10 11  2  0
 11 12  1  0
  2 13  1  0
 13 14  2  0
 14 15  1  0
 15 16  1  0
 16 17  2  0
 17 18  1  0
 18 19  1  0
 19 20  1  0
 20 21  1  0
 21 22  1  0
 22 23  1  0
 12  4  1  0
 17 13  1  0
 23 18  1  0
 12  7  1  0
  3 24  1  0
  5 25  1  0
  8 26  1  0
  9 27  1  0
 10 28  1  0
 11 29  1  0
 14 30  1  0
 15 31  1  0
 18 32  1  0
 19 33  1  0
 19 34  1  0
 20 35  1  0
 20 36  1  0
 21 37  1  0
 21 38  1  0
 22 39  1  0
 23 40  1  0
 23 41  1  0
M  END
>  <Energy>  (470) 
86.701055641355381

>  <compound_id>  (470) 
55977

>  <target_id>  (470) 
1

>  <reference_id>  (470) 
103

>  <inspiration_ids>  (470) 
[7, 103]

>  <energy_score>  (470) 
-49.336648976268464

>  <distance_score>  (470) 
13.731015074440277

>  <path>  (470) 
/opt/xchem-fragalysis-2/maxwin/BulkDock/SCRATCH/511024/C55977-P103/C55977-P103.minimised.mol

>  <scratch_subdir>  (470) 
/opt/xchem-fragalysis-2/maxwin/BulkDock/SCRATCH/511024/C55977-P103

>  <fragmenstein_runtime>  (470) 
10.998720169067383

>  <fragmenstein_outcome>  (470) 
too moved

>  <fragmenstein_mode>  (470) 
expansion

>  <fragmenstein_error>  (470) 


$$$$
C55979-P7
     RDKit          3D

 40 43  0  0  0  0  0  0  0  0999 V2000
    2.5459   -3.9934   28.4785 O   0  0  0  0  0  0  0  0  0  0  0  0
    2.0200   -2.9226   28.3490 C   0  0  0  0  0  0  0  0  0  0  0  0
    0.8346   -2.3334   29.0465 N   0  0  0  0  0  0  0  0  0  0  0  0
    0.0535   -2.8290   30.1211 C   0  0  0  0  0  0  0  0  0  0  0  0
    0.4041   -3.9387   30.8804 C   0  0  0  0  0  0  0  0  0  0  0  0
   -0.4630   -3.9936   31.9780 C   0  0  0  0  0  0  0  0  0  0  0  0
   -1.3583   -3.0218   31.9365 N   0  0  0  0  0  0  0  0  0  0  0  0
   -1.1400   -2.4015   30.7506 N   0  0  0  0  0  0  0  0  0  0  0  0
   -2.2702   -1.5777   30.2988 C   0  0  0  0  0  0  0  0  0  0  0  0
   -2.3243   -0.2268   31.0235 C   0  0  0  0  0  0  0  0  0  0  0  0
   -3.0905   -0.2791   32.3486 C   0  0  0  0  0  0  0  0  0  0  0  0
   -4.4550   -0.9430   32.1928 C   0  0  0  0  0  0  0  0  0  0  0  0
   -4.3173   -2.2628   31.6871 O   0  0  0  0  0  0  0  0  0  0  0  0
   -3.6309   -2.3407   30.4324 C   0  0  0  0  0  0  0  0  0  0  0  0
    2.7544   -2.0064   27.3952 C   0  0  0  0  0  0  0  0  0  0  0  0
    2.7706   -0.6207   27.2949 C   0  0  0  0  0  0  0  0  0  0  0  0
    3.6714   -0.1391   26.3730 N   0  0  0  0  0  0  0  0  0  0  0  0
    4.2566   -1.1990   25.8627 C   0  0  0  0  0  0  0  0  0  0  0  0
    5.2888   -1.3042   24.8731 C   0  0  0  0  0  0  0  0  0  0  0  0
    5.7596   -2.5090   24.5036 C   0  0  0  0  0  0  0  0  0  0  0  0
    5.2352   -3.7191   25.1064 C   0  0  0  0  0  0  0  0  0  0  0  0
    4.2625   -3.6303   26.0366 C   0  0  0  0  0  0  0  0  0  0  0  0
    3.7538   -2.3780   26.4330 N   0  0  0  0  0  0  0  0  0  0  0  0
    0.6150   -1.4389   28.6301 H   0  0  0  0  0  0  0  0  0  0  0  0
    1.2552   -4.5837   30.7044 H   0  0  0  0  0  0  0  0  0  0  0  0
   -0.4613   -4.6848   32.8112 H   0  0  0  0  0  0  0  0  0  0  0  0
   -2.0681   -1.4139   29.2326 H   0  0  0  0  0  0  0  0  0  0  0  0
   -2.8326    0.4945   30.3724 H   0  0  0  0  0  0  0  0  0  0  0  0
   -1.3157    0.1681   31.1948 H   0  0  0  0  0  0  0  0  0  0  0  0
   -2.4987   -0.8366   33.0832 H   0  0  0  0  0  0  0  0  0  0  0  0
   -3.2157    0.7363   32.7408 H   0  0  0  0  0  0  0  0  0  0  0  0
   -5.1031   -0.3618   31.5294 H   0  0  0  0  0  0  0  0  0  0  0  0
   -4.9521   -1.0066   33.1659 H   0  0  0  0  0  0  0  0  0  0  0  0
   -4.3137   -1.9800   29.6622 H   0  0  0  0  0  0  0  0  0  0  0  0
   -3.4897   -3.4067   30.2243 H   0  0  0  0  0  0  0  0  0  0  0  0
    2.1926    0.0801   27.8823 H   0  0  0  0  0  0  0  0  0  0  0  0
    5.6505   -0.3877   24.4219 H   0  0  0  0  0  0  0  0  0  0  0  0
    6.5311   -2.5979   23.7473 H   0  0  0  0  0  0  0  0  0  0  0  0
    5.6361   -4.6773   24.7957 H   0  0  0  0  0  0  0  0  0  0  0  0
    3.8398   -4.5054   26.5119 H   0  0  0  0  0  0  0  0  0  0  0  0
  1  2  2  0
  2  3  1  0
  3  4  1  0
  4  5  2  0
  5  6  1  0
  6  7  2  0
  7  8  1  0
  8  9  1  0
  9 10  1  0
 10 11  1  0
 11 12  1  0
 12 13  1  0
 13 14  1  0
  2 15  1  0
 15 16  2  0
 16 17  1  0
 17 18  2  0
 18 19  1  0
 19 20  2  0
 20 21  1  0
 21 22  2  0
 22 23  1  0
  8  4  1  0
 14  9  1  0
 23 15  1  0
 23 18  1  0
  3 24  1  0
  5 25  1  0
  6 26  1  0
  9 27  1  0
 10 28  1  0
 10 29  1  0
 11 30  1  0
 11 31  1  0
 12 32  1  0
 12 33  1  0
 14 34  1  0
 14 35  1  0
 16 36  1  0
 19 37  1  0
 20 38  1  0
 21 39  1  0
 22 40  1  0
M  END
>  <Energy>  (471) 
64.226951254364877

>  <compound_id>  (471) 
55979

>  <target_id>  (471) 
1

>  <reference_id>  (471) 
7

>  <inspiration_ids>  (471) 
[7, 103]

>  <energy_score>  (471) 
6.095935679555737

>  <distance_score>  (471) 
13.66317449303385

>  <path>  (471) 
/opt/xchem-fragalysis-2/maxwin/BulkDock/SCRATCH/511024/C55979-P7/C55979-P7.minimised.mol

>  <scratch_subdir>  (471) 
/opt/xchem-fragalysis-2/maxwin/BulkDock/SCRATCH/511024/C55979-P7

>  <fragmenstein_runtime>  (471) 
9.004722118377686

>  <fragmenstein_outcome>  (471) 
too moved

>  <fragmenstein_mode>  (471) 
expansion

>  <fragmenstein_error>  (471) 


$$$$
C55979-P103
     RDKit          3D

 40 43  0  0  0  0  0  0  0  0999 V2000
    2.5257   -4.1858   27.5700 O   0  0  0  0  0  0  0  0  0  0  0  0
    2.1978   -3.0397   27.7108 C   0  0  0  0  0  0  0  0  0  0  0  0
    1.0608   -2.4440   28.4786 N   0  0  0  0  0  0  0  0  0  0  0  0
   -0.0046   -3.0612   29.1790 C   0  0  0  0  0  0  0  0  0  0  0  0
   -0.1522   -4.4352   29.3237 C   0  0  0  0  0  0  0  0  0  0  0  0
   -1.3994   -4.6701   29.9143 C   0  0  0  0  0  0  0  0  0  0  0  0
   -2.0625   -3.5373   30.1040 N   0  0  0  0  0  0  0  0  0  0  0  0
   -1.1281   -2.5674   29.8850 N   0  0  0  0  0  0  0  0  0  0  0  0
   -1.3591   -1.3083   30.6106 C   0  0  0  0  0  0  0  0  0  0  0  0
   -0.7603   -1.3803   32.0220 C   0  0  0  0  0  0  0  0  0  0  0  0
   -1.6114   -2.2123   32.9947 C   0  0  0  0  0  0  0  0  0  0  0  0
   -3.1215   -2.0840   32.7730 C   0  0  0  0  0  0  0  0  0  0  0  0
   -3.4105   -0.8909   32.0545 O   0  0  0  0  0  0  0  0  0  0  0  0
   -2.8648   -0.9062   30.7221 C   0  0  0  0  0  0  0  0  0  0  0  0
    3.0923   -2.0624   26.9763 C   0  0  0  0  0  0  0  0  0  0  0  0
    3.2629   -0.6901   27.1051 C   0  0  0  0  0  0  0  0  0  0  0  0
    4.2238   -0.1672   26.2696 N   0  0  0  0  0  0  0  0  0  0  0  0
    4.6814   -1.1844   25.5760 C   0  0  0  0  0  0  0  0  0  0  0  0
    5.6893   -1.2335   24.5575 C   0  0  0  0  0  0  0  0  0  0  0  0
    6.0224   -2.4042   23.9840 C   0  0  0  0  0  0  0  0  0  0  0  0
    5.3650   -3.6324   24.3852 C   0  0  0  0  0  0  0  0  0  0  0  0
    4.4089   -3.5937   25.3354 C   0  0  0  0  0  0  0  0  0  0  0  0
    4.0471   -2.3784   25.9496 N   0  0  0  0  0  0  0  0  0  0  0  0
    1.0340   -1.4475   28.3122 H   0  0  0  0  0  0  0  0  0  0  0  0
    0.5496   -5.1855   28.9831 H   0  0  0  0  0  0  0  0  0  0  0  0
   -1.8701   -5.6169   30.1492 H   0  0  0  0  0  0  0  0  0  0  0  0
   -0.8319   -0.5552   30.0120 H   0  0  0  0  0  0  0  0  0  0  0  0
   -0.6948   -0.3575   32.4165 H   0  0  0  0  0  0  0  0  0  0  0  0
    0.2646   -1.7697   32.0040 H   0  0  0  0  0  0  0  0  0  0  0  0
   -1.3692   -1.8931   34.0162 H   0  0  0  0  0  0  0  0  0  0  0  0
   -1.3305   -3.2709   32.9461 H   0  0  0  0  0  0  0  0  0  0  0  0
   -3.5297   -2.9457   32.2347 H   0  0  0  0  0  0  0  0  0  0  0  0
   -3.6381   -2.0389   33.7373 H   0  0  0  0  0  0  0  0  0  0  0  0
   -2.9476    0.1297   30.3777 H   0  0  0  0  0  0  0  0  0  0  0  0
   -3.5203   -1.5004   30.0767 H   0  0  0  0  0  0  0  0  0  0  0  0
    2.7491   -0.0316   27.7923 H   0  0  0  0  0  0  0  0  0  0  0  0
    6.1526   -0.3005   24.2604 H   0  0  0  0  0  0  0  0  0  0  0  0
    6.7774   -2.4502   23.2077 H   0  0  0  0  0  0  0  0  0  0  0  0
    5.6498   -4.5628   23.9071 H   0  0  0  0  0  0  0  0  0  0  0  0
    3.8864   -4.4838   25.6582 H   0  0  0  0  0  0  0  0  0  0  0  0
  1  2  2  0
  2  3  1  0
  3  4  1  0
  4  5  2  0
  5  6  1  0
  6  7  2  0
  7  8  1  0
  8  9  1  0
  9 10  1  0
 10 11  1  0
 11 12  1  0
 12 13  1  0
 13 14  1  0
  2 15  1  0
 15 16  2  0
 16 17  1  0
 17 18  2  0
 18 19  1  0
 19 20  2  0
 20 21  1  0
 21 22  2  0
 22 23  1  0
  8  4  1  0
 14  9  1  0
 23 15  1  0
 23 18  1  0
  3 24  1  0
  5 25  1  0
  6 26  1  0
  9 27  1  0
 10 28  1  0
 10 29  1  0
 11 30  1  0
 11 31  1  0
 12 32  1  0
 12 33  1  0
 14 34  1  0
 14 35  1  0
 16 36  1  0
 19 37  1  0
 20 38  1  0
 21 39  1  0
 22 40  1  0
M  END
>  <Energy>  (472) 
64.564115856144284

>  <compound_id>  (472) 
55979

>  <target_id>  (472) 
1

>  <reference_id>  (472) 
103

>  <inspiration_ids>  (472) 
[7, 103]

>  <energy_score>  (472) 
6.433100281335157

>  <distance_score>  (472) 
13.650269490881241

>  <path>  (472) 
/opt/xchem-fragalysis-2/maxwin/BulkDock/SCRATCH/511024/C55979-P103/C55979-P103.minimised.mol

>  <scratch_subdir>  (472) 
/opt/xchem-fragalysis-2/maxwin/BulkDock/SCRATCH/511024/C55979-P103

>  <fragmenstein_runtime>  (472) 
9.486490726470947

>  <fragmenstein_outcome>  (472) 
too moved

>  <fragmenstein_mode>  (472) 
expansion

>  <fragmenstein_error>  (472) 


$$$$
C55980-P7
     RDKit          3D

 42 45  0  0  0  0  0  0  0  0999 V2000
    8.0863    1.4104   25.5222 O   0  0  0  0  0  0  0  0  0  0  0  0
    7.7334    0.6969   24.6489 C   0  0  0  0  0  0  0  0  0  0  0  0
    8.5205    0.3198   23.2697 N   0  0  0  0  0  0  0  0  0  0  0  0
    9.9612    0.7003   22.7822 C   0  0  0  0  0  0  0  0  0  0  0  0
   10.6200    0.2674   21.2112 C   0  0  0  0  0  0  0  0  0  0  0  0
   12.4729   -0.0986   20.6604 C   0  0  0  0  0  0  0  0  0  0  0  0
   12.4581   -0.0742   18.6484 N   0  0  0  0  0  0  0  0  0  0  0  0
   10.8112   -0.3145   17.9068 C   0  0  0  0  0  0  0  0  0  0  0  0
    9.8519    0.1979   16.5014 S   0  0  0  0  0  0  0  0  0  0  0  0
    8.2206   -0.0004   17.3932 C   0  0  0  0  0  0  0  0  0  0  0  0
    8.0315   -0.2875   18.8198 C   0  0  0  0  0  0  0  0  0  0  0  0
    9.4870   -0.3363   19.5501 N   0  0  0  0  0  0  0  0  0  0  0  0
    6.4655   -0.1861   24.5349 N   0  0  0  0  0  0  0  0  0  0  0  0
    5.4117   -0.4601   25.4976 C   0  0  0  0  0  0  0  0  0  0  0  0
    4.4553   -1.4693   25.3144 C   0  0  0  0  0  0  0  0  0  0  0  0
    4.0732   -1.9037   26.5953 C   0  0  0  0  0  0  0  0  0  0  0  0
    4.7385   -1.2217   27.5294 N   0  0  0  0  0  0  0  0  0  0  0  0
    5.0317   -0.0563   26.8449 N   0  0  0  0  0  0  0  0  0  0  0  0
    4.0901    1.0450   27.2925 C   0  0  0  0  0  0  0  0  0  0  0  0
    3.3987    1.7919   26.1456 C   0  0  0  0  0  0  0  0  0  0  0  0
    2.2791    2.7213   26.6391 C   0  0  0  0  0  0  0  0  0  0  0  0
    1.3075    2.0384   27.6087 C   0  0  0  0  0  0  0  0  0  0  0  0
    2.0295    1.5536   28.7324 O   0  0  0  0  0  0  0  0  0  0  0  0
    2.9877    0.5569   28.3370 C   0  0  0  0  0  0  0  0  0  0  0  0
    7.9282   -0.2457   22.6917 H   0  0  0  0  0  0  0  0  0  0  0  0
   10.0254    1.7928   22.8327 H   0  0  0  0  0  0  0  0  0  0  0  0
   10.6552    0.2840   23.5206 H   0  0  0  0  0  0  0  0  0  0  0  0
   13.4136    0.1409   21.1540 H   0  0  0  0  0  0  0  0  0  0  0  0
    7.4513   -0.0831   16.6412 H   0  0  0  0  0  0  0  0  0  0  0  0
    7.1601   -0.4202   19.4439 H   0  0  0  0  0  0  0  0  0  0  0  0
    6.4310   -0.6060   23.6238 H   0  0  0  0  0  0  0  0  0  0  0  0
    4.2122   -1.9683   24.3901 H   0  0  0  0  0  0  0  0  0  0  0  0
    3.4218   -2.7144   26.8784 H   0  0  0  0  0  0  0  0  0  0  0  0
    4.7528    1.7485   27.8136 H   0  0  0  0  0  0  0  0  0  0  0  0
    2.9715    1.0780   25.4395 H   0  0  0  0  0  0  0  0  0  0  0  0
    4.1358    2.3737   25.5788 H   0  0  0  0  0  0  0  0  0  0  0  0
    1.7279    3.1206   25.7808 H   0  0  0  0  0  0  0  0  0  0  0  0
    2.7470    3.5705   27.1528 H   0  0  0  0  0  0  0  0  0  0  0  0
    0.5712    2.7643   27.9678 H   0  0  0  0  0  0  0  0  0  0  0  0
    0.7626    1.2186   27.1292 H   0  0  0  0  0  0  0  0  0  0  0  0
    3.4820    0.2226   29.2563 H   0  0  0  0  0  0  0  0  0  0  0  0
    2.4130   -0.2895   27.9434 H   0  0  0  0  0  0  0  0  0  0  0  0
  1  2  2  0
  2  3  1  0
  3  4  1  0
  4  5  1  0
  5  6  2  0
  6  7  1  0
  7  8  2  0
  8  9  1  0
  9 10  1  0
 10 11  2  0
 11 12  1  0
  2 13  1  0
 13 14  1  0
 14 15  2  0
 15 16  1  0
 16 17  2  0
 17 18  1  0
 18 19  1  0
 19 20  1  0
 20 21  1  0
 21 22  1  0
 22 23  1  0
 23 24  1  0
 12  5  1  0
 18 14  1  0
 24 19  1  0
 12  8  1  0
  3 25  1  0
  4 26  1  0
  4 27  1  0
  6 28  1  0
 10 29  1  0
 11 30  1  0
 13 31  1  0
 15 32  1  0
 16 33  1  0
 19 34  1  0
 20 35  1  0
 20 36  1  0
 21 37  1  0
 21 38  1  0
 22 39  1  0
 22 40  1  0
 24 41  1  0
 24 42  1  0
M  END
>  <Energy>  (473) 
831.49758131710269

>  <compound_id>  (473) 
55980

>  <target_id>  (473) 
1

>  <reference_id>  (473) 
7

>  <inspiration_ids>  (473) 
[7, 103]

>  <energy_score>  (473) 
790.7164979921508

>  <distance_score>  (473) 
14.671681323096813

>  <path>  (473) 
/opt/xchem-fragalysis-2/maxwin/BulkDock/SCRATCH/511024/C55980-P7/C55980-P7.minimised.mol

>  <scratch_subdir>  (473) 
/opt/xchem-fragalysis-2/maxwin/BulkDock/SCRATCH/511024/C55980-P7

>  <fragmenstein_runtime>  (473) 
8.815644025802612

>  <fragmenstein_outcome>  (473) 
too moved

>  <fragmenstein_mode>  (473) 
expansion

>  <fragmenstein_error>  (473) 


$$$$
C55980-P103
     RDKit          3D

 42 45  0  0  0  0  0  0  0  0999 V2000
    1.9658    1.6774   30.1661 O   0  0  0  0  0  0  0  0  0  0  0  0
    1.4872    0.7839   29.5818 C   0  0  0  0  0  0  0  0  0  0  0  0
    1.8780    0.2086   28.2112 N   0  0  0  0  0  0  0  0  0  0  0  0
    2.8805    0.6732   27.2165 C   0  0  0  0  0  0  0  0  0  0  0  0
    3.8560   -0.1862   26.4497 C   0  0  0  0  0  0  0  0  0  0  0  0
    4.1709   -1.5407   26.3640 C   0  0  0  0  0  0  0  0  0  0  0  0
    5.2544   -1.8059   25.5237 N   0  0  0  0  0  0  0  0  0  0  0  0
    5.5536   -0.6327   25.0450 C   0  0  0  0  0  0  0  0  0  0  0  0
    6.7572   -0.0277   23.9351 S   0  0  0  0  0  0  0  0  0  0  0  0
    6.1235    1.6035   24.2091 C   0  0  0  0  0  0  0  0  0  0  0  0
    5.0950    1.6315   25.0805 C   0  0  0  0  0  0  0  0  0  0  0  0
    4.7725    0.3700   25.5484 N   0  0  0  0  0  0  0  0  0  0  0  0
    0.2145   -0.0570   29.9585 N   0  0  0  0  0  0  0  0  0  0  0  0
   -0.7143    0.1012   31.0189 C   0  0  0  0  0  0  0  0  0  0  0  0
   -0.5716    1.0960   31.9845 C   0  0  0  0  0  0  0  0  0  0  0  0
   -1.6772    1.0378   32.8353 C   0  0  0  0  0  0  0  0  0  0  0  0
   -2.5039    0.0676   32.4846 N   0  0  0  0  0  0  0  0  0  0  0  0
   -1.9115   -0.5273   31.4081 N   0  0  0  0  0  0  0  0  0  0  0  0
   -2.6769   -1.6525   30.8609 C   0  0  0  0  0  0  0  0  0  0  0  0
   -3.9026   -1.1308   30.1021 C   0  0  0  0  0  0  0  0  0  0  0  0
   -5.1032   -0.7966   31.0020 C   0  0  0  0  0  0  0  0  0  0  0  0
   -5.2534   -1.7069   32.2189 C   0  0  0  0  0  0  0  0  0  0  0  0
   -4.5286   -2.9189   32.0205 O   0  0  0  0  0  0  0  0  0  0  0  0
   -3.1096   -2.6665   31.9660 C   0  0  0  0  0  0  0  0  0  0  0  0
    1.3246   -0.6110   28.0257 H   0  0  0  0  0  0  0  0  0  0  0  0
    3.4799    1.4105   27.7674 H   0  0  0  0  0  0  0  0  0  0  0  0
    2.2997    1.2612   26.4976 H   0  0  0  0  0  0  0  0  0  0  0  0
    3.6811   -2.3528   26.8859 H   0  0  0  0  0  0  0  0  0  0  0  0
    6.5470    2.4628   23.7076 H   0  0  0  0  0  0  0  0  0  0  0  0
    4.5471    2.5001   25.4075 H   0  0  0  0  0  0  0  0  0  0  0  0
    0.0104   -0.7027   29.2130 H   0  0  0  0  0  0  0  0  0  0  0  0
    0.2450    1.8035   32.0433 H   0  0  0  0  0  0  0  0  0  0  0  0
   -1.9116    1.6622   33.6874 H   0  0  0  0  0  0  0  0  0  0  0  0
   -1.9892   -2.1465   30.1638 H   0  0  0  0  0  0  0  0  0  0  0  0
   -4.2224   -1.8993   29.3897 H   0  0  0  0  0  0  0  0  0  0  0  0
   -3.6397   -0.2524   29.5001 H   0  0  0  0  0  0  0  0  0  0  0  0
   -6.0166   -0.8657   30.3985 H   0  0  0  0  0  0  0  0  0  0  0  0
   -5.0587    0.2470   31.3351 H   0  0  0  0  0  0  0  0  0  0  0  0
   -6.3079   -1.9536   32.3742 H   0  0  0  0  0  0  0  0  0  0  0  0
   -4.9036   -1.2162   33.1342 H   0  0  0  0  0  0  0  0  0  0  0  0
   -2.7649   -2.3925   32.9700 H   0  0  0  0  0  0  0  0  0  0  0  0
   -2.6371   -3.6316   31.7520 H   0  0  0  0  0  0  0  0  0  0  0  0
  1  2  2  0
  2  3  1  0
  3  4  1  0
  4  5  1  0
  5  6  2  0
  6  7  1  0
  7  8  2  0
  8  9  1  0
  9 10  1  0
 10 11  2  0
 11 12  1  0
  2 13  1  0
 13 14  1  0
 14 15  2  0
 15 16  1  0
 16 17  2  0
 17 18  1  0
 18 19  1  0
 19 20  1  0
 20 21  1  0
 21 22  1  0
 22 23  1  0
 23 24  1  0
 12  5  1  0
 18 14  1  0
 24 19  1  0
 12  8  1  0
  3 25  1  0
  4 26  1  0
  4 27  1  0
  6 28  1  0
 10 29  1  0
 11 30  1  0
 13 31  1  0
 15 32  1  0
 16 33  1  0
 19 34  1  0
 20 35  1  0
 20 36  1  0
 21 37  1  0
 21 38  1  0
 22 39  1  0
 22 40  1  0
 24 41  1  0
 24 42  1  0
M  END
>  <Energy>  (474) 
28.99588116954785

>  <compound_id>  (474) 
55980

>  <target_id>  (474) 
1

>  <reference_id>  (474) 
103

>  <inspiration_ids>  (474) 
[7, 103]

>  <energy_score>  (474) 
-11.78520215540675

>  <distance_score>  (474) 
13.06249659522895

>  <path>  (474) 
/opt/xchem-fragalysis-2/maxwin/BulkDock/SCRATCH/511024/C55980-P103/C55980-P103.minimised.mol

>  <scratch_subdir>  (474) 
/opt/xchem-fragalysis-2/maxwin/BulkDock/SCRATCH/511024/C55980-P103

>  <fragmenstein_runtime>  (474) 
12.292579174041748

>  <fragmenstein_outcome>  (474) 
too moved

>  <fragmenstein_mode>  (474) 
expansion

>  <fragmenstein_error>  (474) 


$$$$
C76806-P7
     RDKit          3D

 41 43  0  0  0  0  0  0  0  0999 V2000
   -7.7888   -1.2257   34.9515 C   0  0  0  0  0  0  0  0  0  0  0  0
   -6.4973   -1.7769   34.7162 O   0  0  0  0  0  0  0  0  0  0  0  0
   -5.9004   -1.3333   33.4798 C   0  0  0  0  0  0  0  0  0  0  0  0
   -4.5051   -2.0094   33.2709 C   0  0  0  0  0  0  0  0  0  0  0  0
   -3.4489   -1.2255   32.5543 N   0  0  0  0  0  0  0  0  0  0  0  0
   -2.7044   -1.8639   31.5060 N   0  0  0  0  0  0  0  0  0  0  0  0
   -1.6828   -1.2389   30.9301 C   0  0  0  0  0  0  0  0  0  0  0  0
   -1.0308   -1.8623   29.5816 C   0  0  0  0  0  0  0  0  0  0  0  0
   -1.8410   -2.5445   29.0126 O   0  0  0  0  0  0  0  0  0  0  0  0
    0.3596   -1.4772   29.1883 N   0  0  0  0  0  0  0  0  0  0  0  0
    1.1263   -1.7406   27.9277 C   0  0  0  0  0  0  0  0  0  0  0  0
    2.5791   -1.3825   27.4678 C   0  0  0  0  0  0  0  0  0  0  0  0
    3.0523   -0.2464   26.8027 C   0  0  0  0  0  0  0  0  0  0  0  0
    4.1344   -0.6388   26.0147 N   0  0  0  0  0  0  0  0  0  0  0  0
    4.8732    0.0733   25.0559 C   0  0  0  0  0  0  0  0  0  0  0  0
    5.8431   -0.5485   24.3570 C   0  0  0  0  0  0  0  0  0  0  0  0
    6.1032   -1.9542   24.6210 C   0  0  0  0  0  0  0  0  0  0  0  0
    5.3977   -2.6301   25.5525 C   0  0  0  0  0  0  0  0  0  0  0  0
    4.3584   -1.9778   26.2954 C   0  0  0  0  0  0  0  0  0  0  0  0
    3.4949   -2.4191   27.1991 N   0  0  0  0  0  0  0  0  0  0  0  0
   -1.2364    0.0847   31.4008 C   0  0  0  0  0  0  0  0  0  0  0  0
   -1.8957    0.6332   32.4260 C   0  0  0  0  0  0  0  0  0  0  0  0
   -3.0762    0.0095   33.0570 C   0  0  0  0  0  0  0  0  0  0  0  0
   -3.6480    0.6352   33.9444 O   0  0  0  0  0  0  0  0  0  0  0  0
   -7.7455   -0.1329   34.9459 H   0  0  0  0  0  0  0  0  0  0  0  0
   -8.4805   -1.5831   34.1912 H   0  0  0  0  0  0  0  0  0  0  0  0
   -8.1376   -1.5608   35.9311 H   0  0  0  0  0  0  0  0  0  0  0  0
   -5.8222   -0.2438   33.5088 H   0  0  0  0  0  0  0  0  0  0  0  0
   -6.5553   -1.5934   32.6407 H   0  0  0  0  0  0  0  0  0  0  0  0
   -4.6437   -2.9564   32.7368 H   0  0  0  0  0  0  0  0  0  0  0  0
   -4.0807   -2.2559   34.2520 H   0  0  0  0  0  0  0  0  0  0  0  0
    0.7867   -0.9606   29.9426 H   0  0  0  0  0  0  0  0  0  0  0  0
    1.0068   -2.8185   27.7653 H   0  0  0  0  0  0  0  0  0  0  0  0
    0.4831   -1.2499   27.1980 H   0  0  0  0  0  0  0  0  0  0  0  0
    2.6199    0.7339   26.6726 H   0  0  0  0  0  0  0  0  0  0  0  0
    4.6128    1.1133   24.9107 H   0  0  0  0  0  0  0  0  0  0  0  0
    6.4311   -0.0333   23.6065 H   0  0  0  0  0  0  0  0  0  0  0  0
    6.8855   -2.4487   24.0542 H   0  0  0  0  0  0  0  0  0  0  0  0
    5.5823   -3.6789   25.7544 H   0  0  0  0  0  0  0  0  0  0  0  0
   -0.3996    0.5775   30.9289 H   0  0  0  0  0  0  0  0  0  0  0  0
   -1.5934    1.5850   32.8447 H   0  0  0  0  0  0  0  0  0  0  0  0
  1  2  1  0
  2  3  1  0
  3  4  1  0
  4  5  1  0
  5  6  1  0
  6  7  2  0
  7  8  1  0
  8  9  2  0
  8 10  1  0
 10 11  1  0
 11 12  1  0
 12 13  2  0
 13 14  1  0
 14 15  1  0
 15 16  2  0
 16 17  1  0
 17 18  2  0
 18 19  1  0
 19 20  2  0
  7 21  1  0
 21 22  2  0
 22 23  1  0
 23 24  2  0
 23  5  1  0
 20 12  1  0
 19 14  1  0
  1 25  1  0
  1 26  1  0
  1 27  1  0
  3 28  1  0
  3 29  1  0
  4 30  1  0
  4 31  1  0
 10 32  1  0
 11 33  1  0
 11 34  1  0
 13 35  1  0
 15 36  1  0
 16 37  1  0
 17 38  1  0
 18 39  1  0
 21 40  1  0
 22 41  1  0
M  END
>  <Energy>  (475) 
160.62317401302801

>  <compound_id>  (475) 
76806

>  <target_id>  (475) 
1

>  <reference_id>  (475) 
7

>  <inspiration_ids>  (475) 
[7, 103]

>  <energy_score>  (475) 
13.967732439927119

>  <distance_score>  (475) 
12.52194238655433

>  <path>  (475) 
/opt/xchem-fragalysis-2/maxwin/BulkDock/SCRATCH/511024/C76806-P7/C76806-P7.minimised.mol

>  <scratch_subdir>  (475) 
/opt/xchem-fragalysis-2/maxwin/BulkDock/SCRATCH/511024/C76806-P7

>  <fragmenstein_runtime>  (475) 
7.395228862762451

>  <fragmenstein_outcome>  (475) 
too moved

>  <fragmenstein_mode>  (475) 
expansion

>  <fragmenstein_error>  (475) 


$$$$
C76806-P103
     RDKit          3D

 41 43  0  0  0  0  0  0  0  0999 V2000
   -6.9365   -1.2049   34.2784 C   0  0  0  0  0  0  0  0  0  0  0  0
   -6.0804   -2.3424   34.2960 O   0  0  0  0  0  0  0  0  0  0  0  0
   -4.7052   -2.0420   34.0168 C   0  0  0  0  0  0  0  0  0  0  0  0
   -4.3132   -2.2961   32.5349 C   0  0  0  0  0  0  0  0  0  0  0  0
   -3.0895   -1.5833   32.0384 N   0  0  0  0  0  0  0  0  0  0  0  0
   -2.1234   -2.3274   31.2650 N   0  0  0  0  0  0  0  0  0  0  0  0
   -1.0606   -1.7115   30.7605 C   0  0  0  0  0  0  0  0  0  0  0  0
    0.1676   -2.5709   30.1511 C   0  0  0  0  0  0  0  0  0  0  0  0
    0.3397   -3.5621   30.8084 O   0  0  0  0  0  0  0  0  0  0  0  0
    0.9385   -2.0327   28.9888 N   0  0  0  0  0  0  0  0  0  0  0  0
    2.1006   -2.6151   28.2266 C   0  0  0  0  0  0  0  0  0  0  0  0
    2.9774   -2.0194   27.0846 C   0  0  0  0  0  0  0  0  0  0  0  0
    3.2800   -0.7633   26.5714 C   0  0  0  0  0  0  0  0  0  0  0  0
    4.1879   -0.9438   25.5203 N   0  0  0  0  0  0  0  0  0  0  0  0
    4.7990   -0.0161   24.6623 C   0  0  0  0  0  0  0  0  0  0  0  0
    5.6538   -0.4402   23.7094 C   0  0  0  0  0  0  0  0  0  0  0  0
    5.9231   -1.8638   23.5862 C   0  0  0  0  0  0  0  0  0  0  0  0
    5.3417   -2.7516   24.4183 C   0  0  0  0  0  0  0  0  0  0  0  0
    4.4421   -2.3040   25.4399 C   0  0  0  0  0  0  0  0  0  0  0  0
    3.7788   -2.9505   26.3789 N   0  0  0  0  0  0  0  0  0  0  0  0
   -0.8565   -0.2631   30.9394 C   0  0  0  0  0  0  0  0  0  0  0  0
   -1.7811    0.4165   31.6232 C   0  0  0  0  0  0  0  0  0  0  0  0
   -3.0128   -0.2007   32.1565 C   0  0  0  0  0  0  0  0  0  0  0  0
   -3.8634    0.5407   32.6476 O   0  0  0  0  0  0  0  0  0  0  0  0
   -7.9509   -1.5227   34.5300 H   0  0  0  0  0  0  0  0  0  0  0  0
   -6.6108   -0.4731   35.0238 H   0  0  0  0  0  0  0  0  0  0  0  0
   -6.9393   -0.7514   33.2830 H   0  0  0  0  0  0  0  0  0  0  0  0
   -4.1010   -2.7110   34.6405 H   0  0  0  0  0  0  0  0  0  0  0  0
   -4.4710   -1.0287   34.3544 H   0  0  0  0  0  0  0  0  0  0  0  0
   -5.1497   -2.0057   31.8961 H   0  0  0  0  0  0  0  0  0  0  0  0
   -4.1637   -3.3713   32.3819 H   0  0  0  0  0  0  0  0  0  0  0  0
    0.4642   -1.2183   28.6242 H   0  0  0  0  0  0  0  0  0  0  0  0
    1.6984   -3.5582   27.8337 H   0  0  0  0  0  0  0  0  0  0  0  0
    2.8064   -2.9162   29.0123 H   0  0  0  0  0  0  0  0  0  0  0  0
    2.9347    0.2249   26.8311 H   0  0  0  0  0  0  0  0  0  0  0  0
    4.5464    1.0255   24.8097 H   0  0  0  0  0  0  0  0  0  0  0  0
    6.1422    0.2505   23.0318 H   0  0  0  0  0  0  0  0  0  0  0  0
    6.6038   -2.1959   22.8099 H   0  0  0  0  0  0  0  0  0  0  0  0
    5.5309   -3.8157   24.3403 H   0  0  0  0  0  0  0  0  0  0  0  0
    0.0554    0.1948   30.5818 H   0  0  0  0  0  0  0  0  0  0  0  0
   -1.6536    1.4695   31.8264 H   0  0  0  0  0  0  0  0  0  0  0  0
  1  2  1  0
  2  3  1  0
  3  4  1  0
  4  5  1  0
  5  6  1  0
  6  7  2  0
  7  8  1  0
  8  9  2  0
  8 10  1  0
 10 11  1  0
 11 12  1  0
 12 13  2  0
 13 14  1  0
 14 15  1  0
 15 16  2  0
 16 17  1  0
 17 18  2  0
 18 19  1  0
 19 20  2  0
  7 21  1  0
 21 22  2  0
 22 23  1  0
 23 24  2  0
 23  5  1  0
 20 12  1  0
 19 14  1  0
  1 25  1  0
  1 26  1  0
  1 27  1  0
  3 28  1  0
  3 29  1  0
  4 30  1  0
  4 31  1  0
 10 32  1  0
 11 33  1  0
 11 34  1  0
 13 35  1  0
 15 36  1  0
 16 37  1  0
 17 38  1  0
 18 39  1  0
 21 40  1  0
 22 41  1  0
M  END
>  <Energy>  (476) 
152.28237382359293

>  <compound_id>  (476) 
76806

>  <target_id>  (476) 
1

>  <reference_id>  (476) 
103

>  <inspiration_ids>  (476) 
[7, 103]

>  <energy_score>  (476) 
5.626932250493553

>  <distance_score>  (476) 
12.479625820502301

>  <path>  (476) 
/opt/xchem-fragalysis-2/maxwin/BulkDock/SCRATCH/511024/C76806-P103/C76806-P103.minimised.mol

>  <scratch_subdir>  (476) 
/opt/xchem-fragalysis-2/maxwin/BulkDock/SCRATCH/511024/C76806-P103

>  <fragmenstein_runtime>  (476) 
9.232925415039062

>  <fragmenstein_outcome>  (476) 
too moved

>  <fragmenstein_mode>  (476) 
expansion

>  <fragmenstein_error>  (476) 


$$$$
C26413-P7
     RDKit          3D

 48 50  0  0  0  0  0  0  0  0999 V2000
   -5.2762   -3.1006   30.9976 C   0  0  0  0  0  0  0  0  0  0  0  0
   -5.8505   -3.8376   29.8821 O   0  0  0  0  0  0  0  0  0  0  0  0
   -6.0083   -3.3663   28.5130 C   0  0  0  0  0  0  0  0  0  0  0  0
   -4.6862   -2.6794   27.9397 C   0  0  0  0  0  0  0  0  0  0  0  0
   -3.4968   -1.8999   27.0273 C   0  0  0  0  0  0  0  0  0  0  0  0
   -4.0045   -2.0942   25.1872 C   0  0  0  0  0  0  0  0  0  0  0  0
   -4.8095   -1.2757   24.8295 O   0  0  0  0  0  0  0  0  0  0  0  0
   -3.2945   -3.1121   24.4287 N   0  0  0  0  0  0  0  0  0  0  0  0
   -3.2501   -3.4091   22.8822 C   0  0  0  0  0  0  0  0  0  0  0  0
   -1.7296   -2.9473   22.3640 C   0  0  0  0  0  0  0  0  0  0  0  0
   -0.8764   -2.9070   21.0684 C   0  0  0  0  0  0  0  0  0  0  0  0
   -0.0848   -1.8168   20.6810 C   0  0  0  0  0  0  0  0  0  0  0  0
    0.9325   -2.2930   19.8806 N   0  0  0  0  0  0  0  0  0  0  0  0
    2.0330   -1.6291   19.3209 C   0  0  0  0  0  0  0  0  0  0  0  0
    2.9064   -2.3146   18.5611 C   0  0  0  0  0  0  0  0  0  0  0  0
    2.6679   -3.7323   18.3379 C   0  0  0  0  0  0  0  0  0  0  0  0
    1.6190   -4.3678   18.9013 C   0  0  0  0  0  0  0  0  0  0  0  0
    0.6950   -3.6517   19.7282 C   0  0  0  0  0  0  0  0  0  0  0  0
   -0.3622   -4.0401   20.4350 N   0  0  0  0  0  0  0  0  0  0  0  0
   -2.8569   -0.2857   27.1929 C   0  0  0  0  0  0  0  0  0  0  0  0
   -2.2430    0.0621   28.5640 C   0  0  0  0  0  0  0  0  0  0  0  0
   -1.8520   -1.2453   29.1462 C   0  0  0  0  0  0  0  0  0  0  0  0
   -2.0091   -2.2061   27.9762 C   0  0  0  0  0  0  0  0  0  0  0  0
   -5.9967   -2.3931   31.4180 H   0  0  0  0  0  0  0  0  0  0  0  0
   -5.0046   -3.8087   31.7937 H   0  0  0  0  0  0  0  0  0  0  0  0
   -4.3081   -2.6514   30.7991 H   0  0  0  0  0  0  0  0  0  0  0  0
   -6.2254   -4.2894   27.9581 H   0  0  0  0  0  0  0  0  0  0  0  0
   -6.9507   -2.8130   28.4206 H   0  0  0  0  0  0  0  0  0  0  0  0
   -4.9490   -3.1945   27.0106 H   0  0  0  0  0  0  0  0  0  0  0  0
   -4.0203   -3.0214   28.6833 H   0  0  0  0  0  0  0  0  0  0  0  0
   -2.7704   -3.6689   25.0520 H   0  0  0  0  0  0  0  0  0  0  0  0
   -3.3957   -4.4813   22.7382 H   0  0  0  0  0  0  0  0  0  0  0  0
   -4.0170   -2.8070   22.3909 H   0  0  0  0  0  0  0  0  0  0  0  0
   -1.6548   -1.9207   22.7319 H   0  0  0  0  0  0  0  0  0  0  0  0
   -1.0979   -3.6129   22.9498 H   0  0  0  0  0  0  0  0  0  0  0  0
   -0.0863   -0.7925   21.0235 H   0  0  0  0  0  0  0  0  0  0  0  0
    2.1249   -0.5708   19.5255 H   0  0  0  0  0  0  0  0  0  0  0  0
    3.7611   -1.8357   18.0965 H   0  0  0  0  0  0  0  0  0  0  0  0
    3.3486   -4.2729   17.6890 H   0  0  0  0  0  0  0  0  0  0  0  0
    1.4391   -5.4237   18.7357 H   0  0  0  0  0  0  0  0  0  0  0  0
   -3.4199    0.5688   26.8044 H   0  0  0  0  0  0  0  0  0  0  0  0
   -1.9913   -0.2400   26.5203 H   0  0  0  0  0  0  0  0  0  0  0  0
   -1.3578    0.6911   28.4021 H   0  0  0  0  0  0  0  0  0  0  0  0
   -2.8554    0.6193   29.2706 H   0  0  0  0  0  0  0  0  0  0  0  0
   -0.8129   -1.2281   29.4954 H   0  0  0  0  0  0  0  0  0  0  0  0
   -2.4510   -1.5325   30.0110 H   0  0  0  0  0  0  0  0  0  0  0  0
   -1.8665   -3.1710   28.4733 H   0  0  0  0  0  0  0  0  0  0  0  0
   -1.1162   -2.0767   27.3738 H   0  0  0  0  0  0  0  0  0  0  0  0
  1  2  1  0
  2  3  1  0
  3  4  1  0
  4  5  1  0
  5  6  1  0
  6  7  2  0
  6  8  1  0
  8  9  1  0
  9 10  1  0
 10 11  1  0
 11 12  2  0
 12 13  1  0
 13 14  1  0
 14 15  2  0
 15 16  1  0
 16 17  2  0
 17 18  1  0
 18 19  2  0
  5 20  1  0
 20 21  1  0
 21 22  1  0
 22 23  1  0
 23  5  1  0
 19 11  1  0
 18 13  1  0
  1 24  1  0
  1 25  1  0
  1 26  1  0
  3 27  1  0
  3 28  1  0
  4 29  1  0
  4 30  1  0
  8 31  1  0
  9 32  1  0
  9 33  1  0
 10 34  1  0
 10 35  1  0
 12 36  1  0
 14 37  1  0
 15 38  1  0
 16 39  1  0
 17 40  1  0
 20 41  1  0
 20 42  1  0
 21 43  1  0
 21 44  1  0
 22 45  1  0
 22 46  1  0
 23 47  1  0
 23 48  1  0
M  END
>  <Energy>  (477) 
278.12533757349706

>  <compound_id>  (477) 
26413

>  <target_id>  (477) 
1

>  <reference_id>  (477) 
7

>  <inspiration_ids>  (477) 
[7, 103]

>  <energy_score>  (477) 
210.72883783406027

>  <distance_score>  (477) 
13.486355370161638

>  <path>  (477) 
/opt/xchem-fragalysis-2/maxwin/BulkDock/SCRATCH/511024/C26413-P7/C26413-P7.minimised.mol

>  <scratch_subdir>  (477) 
/opt/xchem-fragalysis-2/maxwin/BulkDock/SCRATCH/511024/C26413-P7

>  <fragmenstein_runtime>  (477) 
8.922721862792969

>  <fragmenstein_outcome>  (477) 
too moved

>  <fragmenstein_mode>  (477) 
expansion

>  <fragmenstein_error>  (477) 


$$$$
C26413-P103
     RDKit          3D

 48 50  0  0  0  0  0  0  0  0999 V2000
   -4.7243   -2.7548   33.2091 C   0  0  0  0  0  0  0  0  0  0  0  0
   -3.8649   -3.0894   32.1125 O   0  0  0  0  0  0  0  0  0  0  0  0
   -2.7736   -2.1538   31.9444 C   0  0  0  0  0  0  0  0  0  0  0  0
   -1.8024   -2.5376   30.7631 C   0  0  0  0  0  0  0  0  0  0  0  0
   -0.5580   -1.5766   30.2817 C   0  0  0  0  0  0  0  0  0  0  0  0
    0.3920   -2.3109   29.1002 C   0  0  0  0  0  0  0  0  0  0  0  0
    0.0936   -3.4604   28.8952 O   0  0  0  0  0  0  0  0  0  0  0  0
    1.4732   -1.4729   28.5113 N   0  0  0  0  0  0  0  0  0  0  0  0
    2.6098   -1.8344   27.5355 C   0  0  0  0  0  0  0  0  0  0  0  0
    3.3465   -0.7184   26.6556 C   0  0  0  0  0  0  0  0  0  0  0  0
    4.3452   -1.1141   25.5325 C   0  0  0  0  0  0  0  0  0  0  0  0
    5.1279   -2.2424   25.3387 C   0  0  0  0  0  0  0  0  0  0  0  0
    5.8268   -2.0618   24.1572 N   0  0  0  0  0  0  0  0  0  0  0  0
    6.7118   -2.9182   23.4918 C   0  0  0  0  0  0  0  0  0  0  0  0
    7.2494   -2.5392   22.3183 C   0  0  0  0  0  0  0  0  0  0  0  0
    6.9022   -1.2327   21.7777 C   0  0  0  0  0  0  0  0  0  0  0  0
    6.0632   -0.4034   22.4332 C   0  0  0  0  0  0  0  0  0  0  0  0
    5.4783   -0.8062   23.6765 C   0  0  0  0  0  0  0  0  0  0  0  0
    4.6252   -0.2105   24.4936 N   0  0  0  0  0  0  0  0  0  0  0  0
    0.3117   -1.1918   31.4894 C   0  0  0  0  0  0  0  0  0  0  0  0
   -0.3990   -0.0251   32.1760 C   0  0  0  0  0  0  0  0  0  0  0  0
   -1.2217    0.6538   31.0932 C   0  0  0  0  0  0  0  0  0  0  0  0
   -1.1368   -0.2225   29.8432 C   0  0  0  0  0  0  0  0  0  0  0  0
   -4.1397   -2.5953   34.1200 H   0  0  0  0  0  0  0  0  0  0  0  0
   -5.3019   -1.8589   32.9664 H   0  0  0  0  0  0  0  0  0  0  0  0
   -5.4021   -3.5920   33.3763 H   0  0  0  0  0  0  0  0  0  0  0  0
   -3.2048   -1.1664   31.7737 H   0  0  0  0  0  0  0  0  0  0  0  0
   -2.2023   -2.1510   32.8769 H   0  0  0  0  0  0  0  0  0  0  0  0
   -2.4079   -2.6942   29.8663 H   0  0  0  0  0  0  0  0  0  0  0  0
   -1.3841   -3.5239   31.0035 H   0  0  0  0  0  0  0  0  0  0  0  0
    1.3823   -0.5266   28.8528 H   0  0  0  0  0  0  0  0  0  0  0  0
    3.3674   -2.3164   28.1651 H   0  0  0  0  0  0  0  0  0  0  0  0
    2.2157   -2.6230   26.8940 H   0  0  0  0  0  0  0  0  0  0  0  0
    3.8876   -0.0615   27.3486 H   0  0  0  0  0  0  0  0  0  0  0  0
    2.5730   -0.0968   26.1961 H   0  0  0  0  0  0  0  0  0  0  0  0
    5.2240   -3.1541   25.9094 H   0  0  0  0  0  0  0  0  0  0  0  0
    6.9137   -3.8744   23.9573 H   0  0  0  0  0  0  0  0  0  0  0  0
    7.9238   -3.1884   21.7716 H   0  0  0  0  0  0  0  0  0  0  0  0
    7.3305   -0.9406   20.8262 H   0  0  0  0  0  0  0  0  0  0  0  0
    5.7940    0.5697   22.0404 H   0  0  0  0  0  0  0  0  0  0  0  0
    1.3069   -0.8643   31.1669 H   0  0  0  0  0  0  0  0  0  0  0  0
    0.4633   -2.0308   32.1767 H   0  0  0  0  0  0  0  0  0  0  0  0
    0.3275    0.6662   32.6172 H   0  0  0  0  0  0  0  0  0  0  0  0
   -1.0347   -0.3621   32.9980 H   0  0  0  0  0  0  0  0  0  0  0  0
   -2.2547    0.8067   31.4159 H   0  0  0  0  0  0  0  0  0  0  0  0
   -0.7957    1.6371   30.8745 H   0  0  0  0  0  0  0  0  0  0  0  0
   -2.1068   -0.3165   29.3513 H   0  0  0  0  0  0  0  0  0  0  0  0
   -0.4902    0.2723   29.1111 H   0  0  0  0  0  0  0  0  0  0  0  0
  1  2  1  0
  2  3  1  0
  3  4  1  0
  4  5  1  0
  5  6  1  0
  6  7  2  0
  6  8  1  0
  8  9  1  0
  9 10  1  0
 10 11  1  0
 11 12  2  0
 12 13  1  0
 13 14  1  0
 14 15  2  0
 15 16  1  0
 16 17  2  0
 17 18  1  0
 18 19  2  0
  5 20  1  0
 20 21  1  0
 21 22  1  0
 22 23  1  0
 23  5  1  0
 19 11  1  0
 18 13  1  0
  1 24  1  0
  1 25  1  0
  1 26  1  0
  3 27  1  0
  3 28  1  0
  4 29  1  0
  4 30  1  0
  8 31  1  0
  9 32  1  0
  9 33  1  0
 10 34  1  0
 10 35  1  0
 12 36  1  0
 14 37  1  0
 15 38  1  0
 16 39  1  0
 17 40  1  0
 20 41  1  0
 20 42  1  0
 21 43  1  0
 21 44  1  0
 22 45  1  0
 22 46  1  0
 23 47  1  0
 23 48  1  0
M  END
>  <Energy>  (478) 
73.554626071059559

>  <compound_id>  (478) 
26413

>  <target_id>  (478) 
1

>  <reference_id>  (478) 
103

>  <inspiration_ids>  (478) 
[7, 103]

>  <energy_score>  (478) 
6.158126331622398

>  <distance_score>  (478) 
12.212038345776138

>  <path>  (478) 
/opt/xchem-fragalysis-2/maxwin/BulkDock/SCRATCH/511024/C26413-P103/C26413-P103.minimised.mol

>  <scratch_subdir>  (478) 
/opt/xchem-fragalysis-2/maxwin/BulkDock/SCRATCH/511024/C26413-P103

>  <fragmenstein_runtime>  (478) 
10.565967321395874

>  <fragmenstein_outcome>  (478) 
too moved

>  <fragmenstein_mode>  (478) 
expansion

>  <fragmenstein_error>  (478) 


$$$$
C26420-P7
     RDKit          3D

 47 49  0  0  0  0  0  0  0  0999 V2000
   -8.4554   -1.2731   35.6086 C   0  0  0  0  0  0  0  0  0  0  0  0
   -7.1603   -1.6440   35.1376 O   0  0  0  0  0  0  0  0  0  0  0  0
   -6.7524   -0.9073   33.9724 C   0  0  0  0  0  0  0  0  0  0  0  0
   -5.3302   -1.3348   33.4950 C   0  0  0  0  0  0  0  0  0  0  0  0
   -4.5684   -0.5042   32.3397 C   0  0  0  0  0  0  0  0  0  0  0  0
   -3.2184   -1.2717   31.9198 C   0  0  0  0  0  0  0  0  0  0  0  0
   -2.2053   -0.7509   30.9372 N   0  0  0  0  0  0  0  0  0  0  0  0
   -1.1432   -1.5080   30.0710 C   0  0  0  0  0  0  0  0  0  0  0  0
   -0.9749   -2.6661   29.9545 O   0  0  0  0  0  0  0  0  0  0  0  0
   -0.3797   -0.3359   29.4406 N   0  0  0  0  0  0  0  0  0  0  0  0
    0.7567   -0.3222   28.6168 C   0  0  0  0  0  0  0  0  0  0  0  0
    1.4299   -1.3878   28.0494 C   0  0  0  0  0  0  0  0  0  0  0  0
    2.4616   -0.8628   27.2753 N   0  0  0  0  0  0  0  0  0  0  0  0
    3.3860   -1.4873   26.4243 C   0  0  0  0  0  0  0  0  0  0  0  0
    4.2720   -0.7468   25.7337 C   0  0  0  0  0  0  0  0  0  0  0  0
    4.2713    0.6922   25.9130 C   0  0  0  0  0  0  0  0  0  0  0  0
    3.3783    1.2926   26.7265 C   0  0  0  0  0  0  0  0  0  0  0  0
    2.4054    0.5178   27.4432 C   0  0  0  0  0  0  0  0  0  0  0  0
    1.3867    0.8572   28.2283 N   0  0  0  0  0  0  0  0  0  0  0  0
   -5.4936   -0.2719   31.1373 C   0  0  0  0  0  0  0  0  0  0  0  0
   -6.3122    0.9780   31.4599 C   0  0  0  0  0  0  0  0  0  0  0  0
   -5.4974    1.7771   32.4700 C   0  0  0  0  0  0  0  0  0  0  0  0
   -4.2661    0.9321   32.8043 C   0  0  0  0  0  0  0  0  0  0  0  0
   -8.5934   -0.1882   35.5757 H   0  0  0  0  0  0  0  0  0  0  0  0
   -9.2182   -1.7786   35.0157 H   0  0  0  0  0  0  0  0  0  0  0  0
   -8.5509   -1.5933   36.6477 H   0  0  0  0  0  0  0  0  0  0  0  0
   -6.7487    0.1486   34.2459 H   0  0  0  0  0  0  0  0  0  0  0  0
   -7.4806   -1.0844   33.1780 H   0  0  0  0  0  0  0  0  0  0  0  0
   -4.6742   -1.3620   34.3757 H   0  0  0  0  0  0  0  0  0  0  0  0
   -5.3972   -2.3785   33.1628 H   0  0  0  0  0  0  0  0  0  0  0  0
   -2.6367   -1.4371   32.8351 H   0  0  0  0  0  0  0  0  0  0  0  0
   -3.4906   -2.2675   31.5491 H   0  0  0  0  0  0  0  0  0  0  0  0
   -2.0339    0.2379   30.8841 H   0  0  0  0  0  0  0  0  0  0  0  0
   -0.7275    0.5259   29.8119 H   0  0  0  0  0  0  0  0  0  0  0  0
    1.2529   -2.4523   28.0863 H   0  0  0  0  0  0  0  0  0  0  0  0
    3.2909   -2.5555   26.3018 H   0  0  0  0  0  0  0  0  0  0  0  0
    4.9272   -1.1709   24.9830 H   0  0  0  0  0  0  0  0  0  0  0  0
    4.9870    1.2752   25.3424 H   0  0  0  0  0  0  0  0  0  0  0  0
    3.3596    2.3697   26.8441 H   0  0  0  0  0  0  0  0  0  0  0  0
   -4.8997   -0.0764   30.2357 H   0  0  0  0  0  0  0  0  0  0  0  0
   -6.1323   -1.1341   30.9202 H   0  0  0  0  0  0  0  0  0  0  0  0
   -7.2885    0.7215   31.8761 H   0  0  0  0  0  0  0  0  0  0  0  0
   -6.5065    1.5609   30.5531 H   0  0  0  0  0  0  0  0  0  0  0  0
   -6.0869    2.0035   33.3635 H   0  0  0  0  0  0  0  0  0  0  0  0
   -5.1919    2.7417   32.0491 H   0  0  0  0  0  0  0  0  0  0  0  0
   -3.4092    1.3459   32.2605 H   0  0  0  0  0  0  0  0  0  0  0  0
   -4.0204    0.9853   33.8701 H   0  0  0  0  0  0  0  0  0  0  0  0
  1  2  1  0
  2  3  1  0
  3  4  1  0
  4  5  1  0
  5  6  1  0
  6  7  1  0
  7  8  1  0
  8  9  2  0
  8 10  1  0
 10 11  1  0
 11 12  2  0
 12 13  1  0
 13 14  1  0
 14 15  2  0
 15 16  1  0
 16 17  2  0
 17 18  1  0
 18 19  2  0
  5 20  1  0
 20 21  1  0
 21 22  1  0
 22 23  1  0
 23  5  1  0
 19 11  1  0
 18 13  1  0
  1 24  1  0
  1 25  1  0
  1 26  1  0
  3 27  1  0
  3 28  1  0
  4 29  1  0
  4 30  1  0
  6 31  1  0
  6 32  1  0
  7 33  1  0
 10 34  1  0
 12 35  1  0
 14 36  1  0
 15 37  1  0
 16 38  1  0
 17 39  1  0
 20 40  1  0
 20 41  1  0
 21 42  1  0
 21 43  1  0
 22 44  1  0
 22 45  1  0
 23 46  1  0
 23 47  1  0
M  END
>  <Energy>  (479) 
-14.432424929379385

>  <compound_id>  (479) 
26420

>  <target_id>  (479) 
1

>  <reference_id>  (479) 
7

>  <inspiration_ids>  (479) 
[7, 103]

>  <energy_score>  (479) 
-34.99440130085236

>  <distance_score>  (479) 
12.443550065477332

>  <path>  (479) 
/opt/xchem-fragalysis-2/maxwin/BulkDock/SCRATCH/511024/C26420-P7/C26420-P7.minimised.mol

>  <scratch_subdir>  (479) 
/opt/xchem-fragalysis-2/maxwin/BulkDock/SCRATCH/511024/C26420-P7

>  <fragmenstein_runtime>  (479) 
13.875302076339722

>  <fragmenstein_outcome>  (479) 
too moved

>  <fragmenstein_mode>  (479) 
expansion

>  <fragmenstein_error>  (479) 


$$$$
C26420-P103
     RDKit          3D

 47 49  0  0  0  0  0  0  0  0999 V2000
   -1.6029   -1.9166   29.7850 C   0  0  0  0  0  0  0  0  0  0  0  0
   -0.4860   -2.3205   28.9730 O   0  0  0  0  0  0  0  0  0  0  0  0
    0.4432   -1.2423   28.6656 C   0  0  0  0  0  0  0  0  0  0  0  0
    1.6833   -1.7030   27.7515 C   0  0  0  0  0  0  0  0  0  0  0  0
    3.0281   -0.7504   27.3062 C   0  0  0  0  0  0  0  0  0  0  0  0
    4.2212   -1.4951   26.1591 C   0  0  0  0  0  0  0  0  0  0  0  0
    4.9275   -1.2387   24.6469 N   0  0  0  0  0  0  0  0  0  0  0  0
    6.4674   -1.6521   24.0590 C   0  0  0  0  0  0  0  0  0  0  0  0
    7.3448   -2.1338   24.6816 O   0  0  0  0  0  0  0  0  0  0  0  0
    6.4065   -1.3473   22.4872 N   0  0  0  0  0  0  0  0  0  0  0  0
    7.4299   -1.6340   21.3631 C   0  0  0  0  0  0  0  0  0  0  0  0
    7.4914   -0.7866   20.2384 C   0  0  0  0  0  0  0  0  0  0  0  0
    8.6064   -1.0165   19.2730 N   0  0  0  0  0  0  0  0  0  0  0  0
    9.2076   -0.0205   17.6775 C   0  0  0  0  0  0  0  0  0  0  0  0
   10.7424   -0.7444   17.0369 C   0  0  0  0  0  0  0  0  0  0  0  0
   11.8587   -2.1708   17.9286 C   0  0  0  0  0  0  0  0  0  0  0  0
   11.5478   -2.7174   19.6678 C   0  0  0  0  0  0  0  0  0  0  0  0
    9.4733   -2.4854   20.1543 C   0  0  0  0  0  0  0  0  0  0  0  0
    8.4584   -2.7773   21.1721 N   0  0  0  0  0  0  0  0  0  0  0  0
    3.7670   -0.6252   28.6968 C   0  0  0  0  0  0  0  0  0  0  0  0
    3.1068    0.5125   29.4865 C   0  0  0  0  0  0  0  0  0  0  0  0
    2.3627    1.3398   28.4533 C   0  0  0  0  0  0  0  0  0  0  0  0
    2.7797    0.7529   27.0948 C   0  0  0  0  0  0  0  0  0  0  0  0
   -2.1838   -1.1522   29.2615 H   0  0  0  0  0  0  0  0  0  0  0  0
   -2.2331   -2.7923   29.9579 H   0  0  0  0  0  0  0  0  0  0  0  0
   -1.2455   -1.5340   30.7450 H   0  0  0  0  0  0  0  0  0  0  0  0
    0.8043   -0.8686   29.6217 H   0  0  0  0  0  0  0  0  0  0  0  0
   -0.1071   -0.4569   28.1379 H   0  0  0  0  0  0  0  0  0  0  0  0
    2.0886   -2.6192   28.2035 H   0  0  0  0  0  0  0  0  0  0  0  0
    1.2545   -2.0422   26.8290 H   0  0  0  0  0  0  0  0  0  0  0  0
    5.1139   -1.6088   26.7815 H   0  0  0  0  0  0  0  0  0  0  0  0
    3.7842   -2.4878   26.0058 H   0  0  0  0  0  0  0  0  0  0  0  0
    4.3448   -0.9192   23.8723 H   0  0  0  0  0  0  0  0  0  0  0  0
    5.5504   -0.8536   22.2741 H   0  0  0  0  0  0  0  0  0  0  0  0
    6.8931    0.0813   20.0598 H   0  0  0  0  0  0  0  0  0  0  0  0
    8.5705    0.7433   17.2577 H   0  0  0  0  0  0  0  0  0  0  0  0
   11.2073   -0.3793   16.1196 H   0  0  0  0  0  0  0  0  0  0  0  0
   12.8291   -2.3195   17.4531 H   0  0  0  0  0  0  0  0  0  0  0  0
   12.2211   -3.3449   20.3009 H   0  0  0  0  0  0  0  0  0  0  0  0
    4.8167   -0.3489   28.5303 H   0  0  0  0  0  0  0  0  0  0  0  0
    3.7795   -1.5616   29.2641 H   0  0  0  0  0  0  0  0  0  0  0  0
    3.8775    1.1139   29.9826 H   0  0  0  0  0  0  0  0  0  0  0  0
    2.4510    0.1479   30.2796 H   0  0  0  0  0  0  0  0  0  0  0  0
    2.6324    2.3993   28.5179 H   0  0  0  0  0  0  0  0  0  0  0  0
    1.2815    1.2820   28.5991 H   0  0  0  0  0  0  0  0  0  0  0  0
    3.7124    1.2309   26.7674 H   0  0  0  0  0  0  0  0  0  0  0  0
    2.0263    1.0176   26.3684 H   0  0  0  0  0  0  0  0  0  0  0  0
  1  2  1  0
  2  3  1  0
  3  4  1  0
  4  5  1  0
  5  6  1  0
  6  7  1  0
  7  8  1  0
  8  9  2  0
  8 10  1  0
 10 11  1  0
 11 12  2  0
 12 13  1  0
 13 14  1  0
 14 15  2  0
 15 16  1  0
 16 17  2  0
 17 18  1  0
 18 19  2  0
  5 20  1  0
 20 21  1  0
 21 22  1  0
 22 23  1  0
 23  5  1  0
 19 11  1  0
 18 13  1  0
  1 24  1  0
  1 25  1  0
  1 26  1  0
  3 27  1  0
  3 28  1  0
  4 29  1  0
  4 30  1  0
  6 31  1  0
  6 32  1  0
  7 33  1  0
 10 34  1  0
 12 35  1  0
 14 36  1  0
 15 37  1  0
 16 38  1  0
 17 39  1  0
 20 40  1  0
 20 41  1  0
 21 42  1  0
 21 43  1  0
 22 44  1  0
 22 45  1  0
 23 46  1  0
 23 47  1  0
M  END
>  <Energy>  (480) 
784.36920612646747

>  <compound_id>  (480) 
26420

>  <target_id>  (480) 
1

>  <reference_id>  (480) 
103

>  <inspiration_ids>  (480) 
[7, 103]

>  <energy_score>  (480) 
763.8072297549958

>  <distance_score>  (480) 
13.404200229264609

>  <path>  (480) 
/opt/xchem-fragalysis-2/maxwin/BulkDock/SCRATCH/511024/C26420-P103/C26420-P103.minimised.mol

>  <scratch_subdir>  (480) 
/opt/xchem-fragalysis-2/maxwin/BulkDock/SCRATCH/511024/C26420-P103

>  <fragmenstein_runtime>  (480) 
14.816738843917847

>  <fragmenstein_outcome>  (480) 
too moved

>  <fragmenstein_mode>  (480) 
expansion

>  <fragmenstein_error>  (480) 


$$$$
C76811-P7
     RDKit          3D

 43 46  0  0  0  0  0  0  0  0999 V2000
   -7.0395   -1.1918   34.7466 C   0  0  0  0  0  0  0  0  0  0  0  0
   -6.1710   -1.4023   33.6300 O   0  0  0  0  0  0  0  0  0  0  0  0
   -4.9935   -2.1561   33.9437 C   0  0  0  0  0  0  0  0  0  0  0  0
   -3.9971   -2.2365   32.7411 C   0  0  0  0  0  0  0  0  0  0  0  0
   -2.7551   -1.2271   32.6369 C   0  0  0  0  0  0  0  0  0  0  0  0
   -1.7428   -1.5657   31.4436 C   0  0  0  0  0  0  0  0  0  0  0  0
   -1.4831   -2.8225   31.0557 N   0  0  0  0  0  0  0  0  0  0  0  0
   -0.4631   -2.6946   30.0751 O   0  0  0  0  0  0  0  0  0  0  0  0
   -0.1500   -1.3544   29.9286 C   0  0  0  0  0  0  0  0  0  0  0  0
    0.8647   -0.7880   28.9864 C   0  0  0  0  0  0  0  0  0  0  0  0
    1.0254    0.5649   28.7046 C   0  0  0  0  0  0  0  0  0  0  0  0
    2.0225    0.8230   27.7860 N   0  0  0  0  0  0  0  0  0  0  0  0
    2.5204   -0.3508   27.4723 C   0  0  0  0  0  0  0  0  0  0  0  0
    3.5715   -0.6851   26.5562 C   0  0  0  0  0  0  0  0  0  0  0  0
    3.9366   -1.9676   26.3897 C   0  0  0  0  0  0  0  0  0  0  0  0
    3.2764   -3.0222   27.1393 C   0  0  0  0  0  0  0  0  0  0  0  0
    2.2699   -2.7217   27.9890 C   0  0  0  0  0  0  0  0  0  0  0  0
    1.8636   -1.3901   28.1694 N   0  0  0  0  0  0  0  0  0  0  0  0
   -0.9195   -0.6336   30.7630 N   0  0  0  0  0  0  0  0  0  0  0  0
   -1.9985   -1.2081   33.9905 C   0  0  0  0  0  0  0  0  0  0  0  0
   -2.5450   -0.0425   34.8294 C   0  0  0  0  0  0  0  0  0  0  0  0
   -3.5231    0.7158   33.9511 C   0  0  0  0  0  0  0  0  0  0  0  0
   -3.2217    0.2334   32.5395 C   0  0  0  0  0  0  0  0  0  0  0  0
   -7.8523   -0.5391   34.4207 H   0  0  0  0  0  0  0  0  0  0  0  0
   -6.4994   -0.6940   35.5574 H   0  0  0  0  0  0  0  0  0  0  0  0
   -7.4678   -2.1282   35.1019 H   0  0  0  0  0  0  0  0  0  0  0  0
   -5.2930   -3.1791   34.1837 H   0  0  0  0  0  0  0  0  0  0  0  0
   -4.5213   -1.7668   34.8455 H   0  0  0  0  0  0  0  0  0  0  0  0
   -4.5634   -2.1995   31.8066 H   0  0  0  0  0  0  0  0  0  0  0  0
   -3.5580   -3.2431   32.7857 H   0  0  0  0  0  0  0  0  0  0  0  0
    0.4495    1.3805   29.1262 H   0  0  0  0  0  0  0  0  0  0  0  0
    4.0414    0.1170   26.0003 H   0  0  0  0  0  0  0  0  0  0  0  0
    4.7129   -2.2442   25.6847 H   0  0  0  0  0  0  0  0  0  0  0  0
    3.5931   -4.0465   26.9760 H   0  0  0  0  0  0  0  0  0  0  0  0
    1.7377   -3.4785   28.5498 H   0  0  0  0  0  0  0  0  0  0  0  0
   -0.9243   -1.0443   33.8323 H   0  0  0  0  0  0  0  0  0  0  0  0
   -2.0819   -2.1595   34.5280 H   0  0  0  0  0  0  0  0  0  0  0  0
   -1.7171    0.6116   35.1278 H   0  0  0  0  0  0  0  0  0  0  0  0
   -3.0176   -0.3882   35.7541 H   0  0  0  0  0  0  0  0  0  0  0  0
   -4.5557    0.5049   34.2352 H   0  0  0  0  0  0  0  0  0  0  0  0
   -3.3905    1.7991   34.0413 H   0  0  0  0  0  0  0  0  0  0  0  0
   -4.0949    0.3330   31.9033 H   0  0  0  0  0  0  0  0  0  0  0  0
   -2.4343    0.8712   32.1207 H   0  0  0  0  0  0  0  0  0  0  0  0
  1  2  1  0
  2  3  1  0
  3  4  1  0
  4  5  1  0
  5  6  1  0
  6  7  2  0
  7  8  1  0
  8  9  1  0
  9 10  1  0
 10 11  2  0
 11 12  1  0
 12 13  2  0
 13 14  1  0
 14 15  2  0
 15 16  1  0
 16 17  2  0
 17 18  1  0
  9 19  2  0
  5 20  1  0
 20 21  1  0
 21 22  1  0
 22 23  1  0
 23  5  1  0
 19  6  1  0
 18 10  1  0
 18 13  1  0
  1 24  1  0
  1 25  1  0
  1 26  1  0
  3 27  1  0
  3 28  1  0
  4 29  1  0
  4 30  1  0
 11 31  1  0
 14 32  1  0
 15 33  1  0
 16 34  1  0
 17 35  1  0
 20 36  1  0
 20 37  1  0
 21 38  1  0
 21 39  1  0
 22 40  1  0
 22 41  1  0
 23 42  1  0
 23 43  1  0
M  END
>  <Energy>  (481) 
65.10906353678557

>  <compound_id>  (481) 
76811

>  <target_id>  (481) 
1

>  <reference_id>  (481) 
7

>  <inspiration_ids>  (481) 
[7, 103]

>  <energy_score>  (481) 
-30.13702122178111

>  <distance_score>  (481) 
13.086279310602892

>  <path>  (481) 
/opt/xchem-fragalysis-2/maxwin/BulkDock/SCRATCH/511024/C76811-P7/C76811-P7.minimised.mol

>  <scratch_subdir>  (481) 
/opt/xchem-fragalysis-2/maxwin/BulkDock/SCRATCH/511024/C76811-P7

>  <fragmenstein_runtime>  (481) 
8.624955177307129

>  <fragmenstein_outcome>  (481) 
too moved

>  <fragmenstein_mode>  (481) 
expansion

>  <fragmenstein_error>  (481) 


$$$$
C76811-P103
     RDKit          3D

 43 46  0  0  0  0  0  0  0  0999 V2000
   -9.1209    2.6417   34.7755 C   0  0  0  0  0  0  0  0  0  0  0  0
   -8.4407    2.9038   33.5418 O   0  0  0  0  0  0  0  0  0  0  0  0
   -8.2114    4.3166   33.3074 C   0  0  0  0  0  0  0  0  0  0  0  0
   -7.5318    4.5352   31.9154 C   0  0  0  0  0  0  0  0  0  0  0  0
   -7.2991    5.9525   31.1968 C   0  0  0  0  0  0  0  0  0  0  0  0
   -6.5505    5.8787   29.7500 C   0  0  0  0  0  0  0  0  0  0  0  0
   -7.1368    5.3121   28.6814 N   0  0  0  0  0  0  0  0  0  0  0  0
   -6.1598    5.4109   27.6391 O   0  0  0  0  0  0  0  0  0  0  0  0
   -5.0159    6.0342   28.1427 C   0  0  0  0  0  0  0  0  0  0  0  0
   -3.7064    6.1980   27.3826 C   0  0  0  0  0  0  0  0  0  0  0  0
   -2.9663    7.3743   27.3044 C   0  0  0  0  0  0  0  0  0  0  0  0
   -1.8313    7.2713   26.5150 N   0  0  0  0  0  0  0  0  0  0  0  0
   -1.7787    6.0173   26.1337 C   0  0  0  0  0  0  0  0  0  0  0  0
   -0.7875    5.3441   25.3385 C   0  0  0  0  0  0  0  0  0  0  0  0
   -0.8999    4.0290   25.0853 C   0  0  0  0  0  0  0  0  0  0  0  0
   -2.0277    3.2852   25.6133 C   0  0  0  0  0  0  0  0  0  0  0  0
   -2.9825    3.9120   26.3367 C   0  0  0  0  0  0  0  0  0  0  0  0
   -2.8900    5.2875   26.6244 N   0  0  0  0  0  0  0  0  0  0  0  0
   -5.2907    6.4484   29.4009 N   0  0  0  0  0  0  0  0  0  0  0  0
   -8.6713    6.6513   31.0178 C   0  0  0  0  0  0  0  0  0  0  0  0
   -8.9926    7.3651   32.3278 C   0  0  0  0  0  0  0  0  0  0  0  0
   -7.6765    7.4807   33.0843 C   0  0  0  0  0  0  0  0  0  0  0  0
   -6.5939    6.9353   32.1499 C   0  0  0  0  0  0  0  0  0  0  0  0
  -10.1121    3.1036   34.7663 H   0  0  0  0  0  0  0  0  0  0  0  0
   -8.5336    3.0263   35.6143 H   0  0  0  0  0  0  0  0  0  0  0  0
   -9.2312    1.5610   34.8880 H   0  0  0  0  0  0  0  0  0  0  0  0
   -9.1753    4.8243   33.3539 H   0  0  0  0  0  0  0  0  0  0  0  0
   -7.5572    4.6904   34.1007 H   0  0  0  0  0  0  0  0  0  0  0  0
   -8.1470    3.9756   31.2197 H   0  0  0  0  0  0  0  0  0  0  0  0
   -6.5578    4.0464   31.9883 H   0  0  0  0  0  0  0  0  0  0  0  0
   -3.2133    8.3160   27.7792 H   0  0  0  0  0  0  0  0  0  0  0  0
    0.0466    5.9282   24.9670 H   0  0  0  0  0  0  0  0  0  0  0  0
   -0.1552    3.5040   24.4964 H   0  0  0  0  0  0  0  0  0  0  0  0
   -2.0740    2.2207   25.4305 H   0  0  0  0  0  0  0  0  0  0  0  0
   -3.8394    3.3918   26.7446 H   0  0  0  0  0  0  0  0  0  0  0  0
   -8.6079    7.4078   30.2236 H   0  0  0  0  0  0  0  0  0  0  0  0
   -9.4677    5.9636   30.7211 H   0  0  0  0  0  0  0  0  0  0  0  0
   -9.4143    8.3562   32.1251 H   0  0  0  0  0  0  0  0  0  0  0  0
   -9.7427    6.8274   32.9140 H   0  0  0  0  0  0  0  0  0  0  0  0
   -7.4643    8.5199   33.3583 H   0  0  0  0  0  0  0  0  0  0  0  0
   -7.7166    6.9173   34.0206 H   0  0  0  0  0  0  0  0  0  0  0  0
   -6.1578    7.7735   31.5918 H   0  0  0  0  0  0  0  0  0  0  0  0
   -5.7830    6.4656   32.7154 H   0  0  0  0  0  0  0  0  0  0  0  0
  1  2  1  0
  2  3  1  0
  3  4  1  0
  4  5  1  0
  5  6  1  0
  6  7  2  0
  7  8  1  0
  8  9  1  0
  9 10  1  0
 10 11  2  0
 11 12  1  0
 12 13  2  0
 13 14  1  0
 14 15  2  0
 15 16  1  0
 16 17  2  0
 17 18  1  0
  9 19  2  0
  5 20  1  0
 20 21  1  0
 21 22  1  0
 22 23  1  0
 23  5  1  0
 19  6  1  0
 18 10  1  0
 18 13  1  0
  1 24  1  0
  1 25  1  0
  1 26  1  0
  3 27  1  0
  3 28  1  0
  4 29  1  0
  4 30  1  0
 11 31  1  0
 14 32  1  0
 15 33  1  0
 16 34  1  0
 17 35  1  0
 20 36  1  0
 20 37  1  0
 21 38  1  0
 21 39  1  0
 22 40  1  0
 22 41  1  0
 23 42  1  0
 23 43  1  0
M  END
>  <Energy>  (482) 
76.699394681772318

>  <compound_id>  (482) 
76811

>  <target_id>  (482) 
1

>  <reference_id>  (482) 
103

>  <inspiration_ids>  (482) 
[7, 103]

>  <energy_score>  (482) 
-18.546690076795812

>  <distance_score>  (482) 
15.342601948302143

>  <path>  (482) 
/opt/xchem-fragalysis-2/maxwin/BulkDock/SCRATCH/511024/C76811-P103/C76811-P103.minimised.mol

>  <scratch_subdir>  (482) 
/opt/xchem-fragalysis-2/maxwin/BulkDock/SCRATCH/511024/C76811-P103

>  <fragmenstein_runtime>  (482) 
9.066235303878784

>  <fragmenstein_outcome>  (482) 
too moved

>  <fragmenstein_mode>  (482) 
expansion

>  <fragmenstein_error>  (482) 


$$$$
C76812-P7
     RDKit          3D

 38 40  0  0  0  0  0  0  0  0999 V2000
   -6.7747   -6.8494   28.3787 C   0  0  0  0  0  0  0  0  0  0  0  0
   -5.6086   -7.8949   28.2253 C   0  0  0  0  0  0  0  0  0  0  0  0
   -4.0576   -7.5072   27.5287 O   0  0  0  0  0  0  0  0  0  0  0  0
   -2.3107   -6.9791   27.4713 C   0  0  0  0  0  0  0  0  0  0  0  0
   -1.2975   -7.5850   26.0407 C   0  0  0  0  0  0  0  0  0  0  0  0
   -0.8022   -8.8110   25.8314 N   0  0  0  0  0  0  0  0  0  0  0  0
   -0.1707   -9.0245   24.5369 N   0  0  0  0  0  0  0  0  0  0  0  0
   -0.0670   -7.9435   23.7503 C   0  0  0  0  0  0  0  0  0  0  0  0
    0.2078   -8.0610   22.0284 C   0  0  0  0  0  0  0  0  0  0  0  0
    1.2045   -7.4945   20.9090 N   0  0  0  0  0  0  0  0  0  0  0  0
    1.0919   -6.1926   20.1032 C   0  0  0  0  0  0  0  0  0  0  0  0
    1.3127   -4.9340   20.9639 C   0  0  0  0  0  0  0  0  0  0  0  0
    2.0250   -6.0067   18.8695 C   0  0  0  0  0  0  0  0  0  0  0  0
    3.0207   -6.7587   18.2387 C   0  0  0  0  0  0  0  0  0  0  0  0
    3.7003   -6.0552   17.2528 N   0  0  0  0  0  0  0  0  0  0  0  0
    3.0710   -4.9159   17.2266 C   0  0  0  0  0  0  0  0  0  0  0  0
    3.1506   -3.4960   16.2240 S   0  0  0  0  0  0  0  0  0  0  0  0
    1.7868   -2.8259   17.0925 C   0  0  0  0  0  0  0  0  0  0  0  0
    1.3041   -3.6643   18.0239 C   0  0  0  0  0  0  0  0  0  0  0  0
    2.0425   -4.8327   18.1176 N   0  0  0  0  0  0  0  0  0  0  0  0
   -0.7274   -6.6023   24.7361 S   0  0  0  0  0  0  0  0  0  0  0  0
   -6.4943   -5.9099   28.8552 H   0  0  0  0  0  0  0  0  0  0  0  0
   -7.2279   -6.6092   27.4144 H   0  0  0  0  0  0  0  0  0  0  0  0
   -7.5687   -7.3164   28.9717 H   0  0  0  0  0  0  0  0  0  0  0  0
   -6.0167   -8.5989   27.4905 H   0  0  0  0  0  0  0  0  0  0  0  0
   -5.5196   -8.3691   29.1689 H   0  0  0  0  0  0  0  0  0  0  0  0
   -2.0242   -5.9401   27.4059 H   0  0  0  0  0  0  0  0  0  0  0  0
   -1.8395   -7.3023   28.4185 H   0  0  0  0  0  0  0  0  0  0  0  0
    0.5898   -9.0963   22.0561 H   0  0  0  0  0  0  0  0  0  0  0  0
   -0.7839   -8.1963   21.5778 H   0  0  0  0  0  0  0  0  0  0  0  0
    1.2132   -8.2342   20.2048 H   0  0  0  0  0  0  0  0  0  0  0  0
    0.0932   -6.1904   19.6500 H   0  0  0  0  0  0  0  0  0  0  0  0
    2.3472   -4.5832   20.9577 H   0  0  0  0  0  0  0  0  0  0  0  0
    0.7879   -4.0815   20.5421 H   0  0  0  0  0  0  0  0  0  0  0  0
    0.9855   -5.0580   21.9984 H   0  0  0  0  0  0  0  0  0  0  0  0
    3.3165   -7.7741   18.4692 H   0  0  0  0  0  0  0  0  0  0  0  0
    1.3606   -1.8645   16.8418 H   0  0  0  0  0  0  0  0  0  0  0  0
    0.4345   -3.4858   18.6340 H   0  0  0  0  0  0  0  0  0  0  0  0
  1  2  1  0
  2  3  1  0
  3  4  1  0
  4  5  1  0
  5  6  2  0
  6  7  1  0
  7  8  2  0
  8  9  1  0
  9 10  1  0
 10 11  1  0
 11 12  1  0
 11 13  1  0
 13 14  2  0
 14 15  1  0
 15 16  2  0
 16 17  1  0
 17 18  1  0
 18 19  2  0
 19 20  1  0
  8 21  1  0
 21  5  1  0
 20 13  1  0
 20 16  1  0
  1 22  1  0
  1 23  1  0
  1 24  1  0
  2 25  1  0
  2 26  1  0
  4 27  1  0
  4 28  1  0
  9 29  1  0
  9 30  1  0
 10 31  1  0
 11 32  1  0
 12 33  1  0
 12 34  1  0
 12 35  1  0
 14 36  1  0
 18 37  1  0
 19 38  1  0
M  END
>  <Energy>  (483) 
311.71211709635213

>  <compound_id>  (483) 
76812

>  <target_id>  (483) 
1

>  <reference_id>  (483) 
7

>  <inspiration_ids>  (483) 
[7, 103]

>  <energy_score>  (483) 
158.1016724220636

>  <distance_score>  (483) 
13.09404239907362

>  <path>  (483) 
/opt/xchem-fragalysis-2/maxwin/BulkDock/SCRATCH/511024/C76812-P7/C76812-P7.minimised.mol

>  <scratch_subdir>  (483) 
/opt/xchem-fragalysis-2/maxwin/BulkDock/SCRATCH/511024/C76812-P7

>  <fragmenstein_runtime>  (483) 
7.985374450683594

>  <fragmenstein_outcome>  (483) 
too moved

>  <fragmenstein_mode>  (483) 
expansion

>  <fragmenstein_error>  (483) 


$$$$
C76812-P103
     RDKit          3D

 38 40  0  0  0  0  0  0  0  0999 V2000
   -0.6883   -6.6093   24.6796 C   0  0  0  0  0  0  0  0  0  0  0  0
    0.2325   -6.6074   23.3986 C   0  0  0  0  0  0  0  0  0  0  0  0
    0.6685   -5.3029   22.7565 O   0  0  0  0  0  0  0  0  0  0  0  0
    1.0627   -5.2885   21.2476 C   0  0  0  0  0  0  0  0  0  0  0  0
    2.0999   -4.2577   20.5986 C   0  0  0  0  0  0  0  0  0  0  0  0
    2.7303   -3.2571   21.1557 N   0  0  0  0  0  0  0  0  0  0  0  0
    3.4444   -2.4606   20.2664 N   0  0  0  0  0  0  0  0  0  0  0  0
    3.5689   -2.8986   19.0205 C   0  0  0  0  0  0  0  0  0  0  0  0
    4.2368   -2.0121   17.6979 C   0  0  0  0  0  0  0  0  0  0  0  0
    5.8382   -1.1388   17.6079 N   0  0  0  0  0  0  0  0  0  0  0  0
    7.1099   -0.9070   16.3177 C   0  0  0  0  0  0  0  0  0  0  0  0
    7.2168   -1.9734   15.1728 C   0  0  0  0  0  0  0  0  0  0  0  0
    8.4568    0.0250   16.4288 C   0  0  0  0  0  0  0  0  0  0  0  0
    8.6562    1.2541   17.0806 C   0  0  0  0  0  0  0  0  0  0  0  0
    9.8889    1.8186   16.8792 N   0  0  0  0  0  0  0  0  0  0  0  0
   10.4538    1.0033   16.0544 C   0  0  0  0  0  0  0  0  0  0  0  0
   11.8621    1.2274   15.0645 S   0  0  0  0  0  0  0  0  0  0  0  0
   10.9185    0.5613   13.7566 C   0  0  0  0  0  0  0  0  0  0  0  0
    9.7240    0.0934   14.1592 C   0  0  0  0  0  0  0  0  0  0  0  0
    9.5054    0.1931   15.5027 N   0  0  0  0  0  0  0  0  0  0  0  0
    2.5200   -4.3173   18.8350 S   0  0  0  0  0  0  0  0  0  0  0  0
   -1.0256   -7.6353   24.8565 H   0  0  0  0  0  0  0  0  0  0  0  0
   -0.1950   -6.3006   25.5994 H   0  0  0  0  0  0  0  0  0  0  0  0
   -1.5459   -5.9578   24.5891 H   0  0  0  0  0  0  0  0  0  0  0  0
    1.0882   -7.1794   23.6931 H   0  0  0  0  0  0  0  0  0  0  0  0
   -0.1519   -7.2955   22.6362 H   0  0  0  0  0  0  0  0  0  0  0  0
    0.2326   -4.9859   20.6150 H   0  0  0  0  0  0  0  0  0  0  0  0
    1.2756   -6.3132   20.9254 H   0  0  0  0  0  0  0  0  0  0  0  0
    4.0186   -2.5352   16.7538 H   0  0  0  0  0  0  0  0  0  0  0  0
    3.4768   -1.2465   17.7930 H   0  0  0  0  0  0  0  0  0  0  0  0
    6.2260   -1.2586   18.5472 H   0  0  0  0  0  0  0  0  0  0  0  0
    6.6802   -0.0332   15.9330 H   0  0  0  0  0  0  0  0  0  0  0  0
    6.2456   -2.3537   14.8416 H   0  0  0  0  0  0  0  0  0  0  0  0
    7.8241   -2.8248   15.4348 H   0  0  0  0  0  0  0  0  0  0  0  0
    7.6892   -1.6020   14.2719 H   0  0  0  0  0  0  0  0  0  0  0  0
    7.9858    1.8113   17.7149 H   0  0  0  0  0  0  0  0  0  0  0  0
   11.2456    0.6333   12.7314 H   0  0  0  0  0  0  0  0  0  0  0  0
    8.9132   -0.1685   13.5150 H   0  0  0  0  0  0  0  0  0  0  0  0
  1  2  1  0
  2  3  1  0
  3  4  1  0
  4  5  1  0
  5  6  2  0
  6  7  1  0
  7  8  2  0
  8  9  1  0
  9 10  1  0
 10 11  1  0
 11 12  1  0
 11 13  1  0
 13 14  2  0
 14 15  1  0
 15 16  2  0
 16 17  1  0
 17 18  1  0
 18 19  2  0
 19 20  1  0
  8 21  1  0
 21  5  1  0
 20 13  1  0
 20 16  1  0
  1 22  1  0
  1 23  1  0
  1 24  1  0
  2 25  1  0
  2 26  1  0
  4 27  1  0
  4 28  1  0
  9 29  1  0
  9 30  1  0
 10 31  1  0
 11 32  1  0
 12 33  1  0
 12 34  1  0
 12 35  1  0
 14 36  1  0
 18 37  1  0
 19 38  1  0
M  END
>  <Energy>  (484) 
269.8117216902433

>  <compound_id>  (484) 
76812

>  <target_id>  (484) 
1

>  <reference_id>  (484) 
103

>  <inspiration_ids>  (484) 
[7, 103]

>  <energy_score>  (484) 
116.20127701595328

>  <distance_score>  (484) 
12.09334558345456

>  <path>  (484) 
/opt/xchem-fragalysis-2/maxwin/BulkDock/SCRATCH/511024/C76812-P103/C76812-P103.minimised.mol

>  <scratch_subdir>  (484) 
/opt/xchem-fragalysis-2/maxwin/BulkDock/SCRATCH/511024/C76812-P103

>  <fragmenstein_runtime>  (484) 
8.981541156768799

>  <fragmenstein_outcome>  (484) 
too moved

>  <fragmenstein_mode>  (484) 
expansion

>  <fragmenstein_error>  (484) 


$$$$
C76817-P7
     RDKit          3D

 34 36  0  0  0  0  0  0  0  0999 V2000
   -2.3192   -2.0205   31.8113 C   0  0  0  0  0  0  0  0  0  0  0  0
   -1.9271   -1.4592   30.4474 C   0  0  0  0  0  0  0  0  0  0  0  0
   -0.4930   -1.4200   30.2644 O   0  0  0  0  0  0  0  0  0  0  0  0
   -0.1300   -0.7553   29.0010 C   0  0  0  0  0  0  0  0  0  0  0  0
    1.3792   -0.8371   28.5049 C   0  0  0  0  0  0  0  0  0  0  0  0
    2.3009   -1.8183   28.8110 C   0  0  0  0  0  0  0  0  0  0  0  0
    3.7897   -1.5879   27.9602 S   0  0  0  0  0  0  0  0  0  0  0  0
    3.1917   -0.1847   27.1588 C   0  0  0  0  0  0  0  0  0  0  0  0
    4.0456    0.6830   26.1435 C   0  0  0  0  0  0  0  0  0  0  0  0
    5.4208    0.3183   25.5550 C   0  0  0  0  0  0  0  0  0  0  0  0
    6.4576   -0.4887   25.9911 C   0  0  0  0  0  0  0  0  0  0  0  0
    7.5057   -0.3304   25.1065 N   0  0  0  0  0  0  0  0  0  0  0  0
    8.7664   -0.9280   25.1045 C   0  0  0  0  0  0  0  0  0  0  0  0
    9.6984   -0.4893   24.2435 C   0  0  0  0  0  0  0  0  0  0  0  0
    9.3638    0.6128   23.3572 C   0  0  0  0  0  0  0  0  0  0  0  0
    8.1176    1.1257   23.3035 C   0  0  0  0  0  0  0  0  0  0  0  0
    7.1207    0.6505   24.2057 C   0  0  0  0  0  0  0  0  0  0  0  0
    5.8791    1.0310   24.4318 N   0  0  0  0  0  0  0  0  0  0  0  0
    1.9349    0.1117   27.5619 N   0  0  0  0  0  0  0  0  0  0  0  0
   -3.4061   -2.0529   31.9243 H   0  0  0  0  0  0  0  0  0  0  0  0
   -1.8939   -1.4061   32.6111 H   0  0  0  0  0  0  0  0  0  0  0  0
   -1.9167   -3.0308   31.9357 H   0  0  0  0  0  0  0  0  0  0  0  0
   -2.3228   -0.4433   30.3429 H   0  0  0  0  0  0  0  0  0  0  0  0
   -2.3366   -2.0983   29.6600 H   0  0  0  0  0  0  0  0  0  0  0  0
   -0.3766    0.3079   29.1026 H   0  0  0  0  0  0  0  0  0  0  0  0
   -0.7369   -1.1873   28.1962 H   0  0  0  0  0  0  0  0  0  0  0  0
    2.1718   -2.6639   29.4707 H   0  0  0  0  0  0  0  0  0  0  0  0
    4.1896    1.6446   26.6572 H   0  0  0  0  0  0  0  0  0  0  0  0
    3.3775    0.8948   25.3015 H   0  0  0  0  0  0  0  0  0  0  0  0
    6.5698   -1.1089   26.8666 H   0  0  0  0  0  0  0  0  0  0  0  0
    8.9516   -1.7117   25.8280 H   0  0  0  0  0  0  0  0  0  0  0  0
   10.7014   -0.9051   24.2241 H   0  0  0  0  0  0  0  0  0  0  0  0
   10.1732    1.0281   22.7658 H   0  0  0  0  0  0  0  0  0  0  0  0
    7.8620    1.9565   22.6583 H   0  0  0  0  0  0  0  0  0  0  0  0
  1  2  1  0
  2  3  1  0
  3  4  1  0
  4  5  1  0
  5  6  2  0
  6  7  1  0
  7  8  1  0
  8  9  1  0
  9 10  1  0
 10 11  2  0
 11 12  1  0
 12 13  1  0
 13 14  2  0
 14 15  1  0
 15 16  2  0
 16 17  1  0
 17 18  2  0
  8 19  2  0
 19  5  1  0
 18 10  1  0
 17 12  1  0
  1 20  1  0
  1 21  1  0
  1 22  1  0
  2 23  1  0
  2 24  1  0
  4 25  1  0
  4 26  1  0
  6 27  1  0
  9 28  1  0
  9 29  1  0
 11 30  1  0
 13 31  1  0
 14 32  1  0
 15 33  1  0
 16 34  1  0
M  END
>  <Energy>  (485) 
86.457142163269893

>  <compound_id>  (485) 
76817

>  <target_id>  (485) 
1

>  <reference_id>  (485) 
7

>  <inspiration_ids>  (485) 
[7, 103]

>  <energy_score>  (485) 
-27.823070846843166

>  <distance_score>  (485) 
12.156554265652458

>  <path>  (485) 
/opt/xchem-fragalysis-2/maxwin/BulkDock/SCRATCH/511024/C76817-P7/C76817-P7.minimised.mol

>  <scratch_subdir>  (485) 
/opt/xchem-fragalysis-2/maxwin/BulkDock/SCRATCH/511024/C76817-P7

>  <fragmenstein_runtime>  (485) 
4.843274831771851

>  <fragmenstein_outcome>  (485) 
too moved

>  <fragmenstein_mode>  (485) 
expansion

>  <fragmenstein_error>  (485) 


$$$$
C76817-P103
     RDKit          3D

 34 36  0  0  0  0  0  0  0  0999 V2000
   -2.4623   -1.5848   31.8379 C   0  0  0  0  0  0  0  0  0  0  0  0
   -1.6484   -2.0981   30.6521 C   0  0  0  0  0  0  0  0  0  0  0  0
   -0.5040   -1.2496   30.3821 O   0  0  0  0  0  0  0  0  0  0  0  0
    0.1389   -1.6008   29.1033 C   0  0  0  0  0  0  0  0  0  0  0  0
    1.5532   -0.9535   28.7434 C   0  0  0  0  0  0  0  0  0  0  0  0
    2.4516   -0.3234   29.5829 C   0  0  0  0  0  0  0  0  0  0  0  0
    3.8874    0.1822   28.7331 S   0  0  0  0  0  0  0  0  0  0  0  0
    3.2965   -0.4564   27.2456 C   0  0  0  0  0  0  0  0  0  0  0  0
    4.0042   -0.2309   25.8538 C   0  0  0  0  0  0  0  0  0  0  0  0
    5.5161   -0.1443   25.5992 C   0  0  0  0  0  0  0  0  0  0  0  0
    6.6034   -0.7794   26.1738 C   0  0  0  0  0  0  0  0  0  0  0  0
    7.6819   -0.5733   25.3334 N   0  0  0  0  0  0  0  0  0  0  0  0
    8.9662   -1.1189   25.3768 C   0  0  0  0  0  0  0  0  0  0  0  0
    9.8825   -0.7149   24.4821 C   0  0  0  0  0  0  0  0  0  0  0  0
    9.5166    0.3253   23.5370 C   0  0  0  0  0  0  0  0  0  0  0  0
    8.2555    0.7948   23.4470 C   0  0  0  0  0  0  0  0  0  0  0  0
    7.2644    0.3212   24.3581 C   0  0  0  0  0  0  0  0  0  0  0  0
    5.9791    0.5808   24.4879 N   0  0  0  0  0  0  0  0  0  0  0  0
    2.0834   -1.0207   27.4061 N   0  0  0  0  0  0  0  0  0  0  0  0
   -1.8445   -1.5681   32.7415 H   0  0  0  0  0  0  0  0  0  0  0  0
   -3.3357   -2.2181   32.0150 H   0  0  0  0  0  0  0  0  0  0  0  0
   -2.7907   -0.5564   31.6591 H   0  0  0  0  0  0  0  0  0  0  0  0
   -1.2800   -3.1065   30.8705 H   0  0  0  0  0  0  0  0  0  0  0  0
   -2.2711   -2.1461   29.7556 H   0  0  0  0  0  0  0  0  0  0  0  0
    0.2908   -2.6869   29.0810 H   0  0  0  0  0  0  0  0  0  0  0  0
   -0.5507   -1.3195   28.2990 H   0  0  0  0  0  0  0  0  0  0  0  0
    2.3493   -0.1291   30.6407 H   0  0  0  0  0  0  0  0  0  0  0  0
    3.6519   -1.0664   25.2356 H   0  0  0  0  0  0  0  0  0  0  0  0
    3.5580    0.6881   25.4516 H   0  0  0  0  0  0  0  0  0  0  0  0
    6.6914   -1.4104   27.0456 H   0  0  0  0  0  0  0  0  0  0  0  0
    9.1708   -1.8572   26.1414 H   0  0  0  0  0  0  0  0  0  0  0  0
   10.8943   -1.1094   24.4691 H   0  0  0  0  0  0  0  0  0  0  0  0
   10.3243    0.7325   22.9399 H   0  0  0  0  0  0  0  0  0  0  0  0
    7.9788    1.5789   22.7526 H   0  0  0  0  0  0  0  0  0  0  0  0
  1  2  1  0
  2  3  1  0
  3  4  1  0
  4  5  1  0
  5  6  2  0
  6  7  1  0
  7  8  1  0
  8  9  1  0
  9 10  1  0
 10 11  2  0
 11 12  1  0
 12 13  1  0
 13 14  2  0
 14 15  1  0
 15 16  2  0
 16 17  1  0
 17 18  2  0
  8 19  2  0
 19  5  1  0
 18 10  1  0
 17 12  1  0
  1 20  1  0
  1 21  1  0
  1 22  1  0
  2 23  1  0
  2 24  1  0
  4 25  1  0
  4 26  1  0
  6 27  1  0
  9 28  1  0
  9 29  1  0
 11 30  1  0
 13 31  1  0
 14 32  1  0
 15 33  1  0
 16 34  1  0
M  END
>  <Energy>  (486) 
85.8444437697285

>  <compound_id>  (486) 
76817

>  <target_id>  (486) 
1

>  <reference_id>  (486) 
103

>  <inspiration_ids>  (486) 
[7, 103]

>  <energy_score>  (486) 
-28.435769240382456

>  <distance_score>  (486) 
12.148144613847657

>  <path>  (486) 
/opt/xchem-fragalysis-2/maxwin/BulkDock/SCRATCH/511024/C76817-P103/C76817-P103.minimised.mol

>  <scratch_subdir>  (486) 
/opt/xchem-fragalysis-2/maxwin/BulkDock/SCRATCH/511024/C76817-P103

>  <fragmenstein_runtime>  (486) 
3.91166353225708

>  <fragmenstein_outcome>  (486) 
too moved

>  <fragmenstein_mode>  (486) 
expansion

>  <fragmenstein_error>  (486) 


$$$$
C76840-P7
     RDKit          3D

 41 43  0  0  0  0  0  0  0  0999 V2000
   -7.3144   -1.1648   35.0494 C   0  0  0  0  0  0  0  0  0  0  0  0
   -6.4917   -1.2822   33.8873 O   0  0  0  0  0  0  0  0  0  0  0  0
   -5.2545   -1.9708   34.1285 C   0  0  0  0  0  0  0  0  0  0  0  0
   -4.4569   -2.2403   32.8114 C   0  0  0  0  0  0  0  0  0  0  0  0
   -3.2914   -1.3160   32.4000 C   0  0  0  0  0  0  0  0  0  0  0  0
   -3.1012   -0.0843   33.0289 C   0  0  0  0  0  0  0  0  0  0  0  0
   -2.0152    0.7292   32.6722 C   0  0  0  0  0  0  0  0  0  0  0  0
   -1.1121    0.3743   31.6479 C   0  0  0  0  0  0  0  0  0  0  0  0
   -1.2684   -0.8287   30.9708 C   0  0  0  0  0  0  0  0  0  0  0  0
   -0.3660   -1.1766   29.8281 O   0  0  0  0  0  0  0  0  0  0  0  0
    0.9878   -0.7162   29.3872 C   0  0  0  0  0  0  0  0  0  0  0  0
    1.6833    0.0113   30.0824 O   0  0  0  0  0  0  0  0  0  0  0  0
    1.3334   -1.2714   27.9723 C   0  0  0  0  0  0  0  0  0  0  0  0
    2.7193   -1.0484   27.2315 C   0  0  0  0  0  0  0  0  0  0  0  0
    3.7959   -1.9311   27.1227 C   0  0  0  0  0  0  0  0  0  0  0  0
    4.5668   -1.5335   26.0389 N   0  0  0  0  0  0  0  0  0  0  0  0
    5.6917   -2.1375   25.4547 C   0  0  0  0  0  0  0  0  0  0  0  0
    6.2463   -1.5965   24.3534 C   0  0  0  0  0  0  0  0  0  0  0  0
    5.6570   -0.3863   23.8009 C   0  0  0  0  0  0  0  0  0  0  0  0
    4.5821    0.1970   24.3753 C   0  0  0  0  0  0  0  0  0  0  0  0
    3.9794   -0.3766   25.5451 C   0  0  0  0  0  0  0  0  0  0  0  0
    2.9068   -0.0483   26.2583 N   0  0  0  0  0  0  0  0  0  0  0  0
   -2.3582   -1.6749   31.3505 C   0  0  0  0  0  0  0  0  0  0  0  0
   -6.7372   -0.7710   35.8913 H   0  0  0  0  0  0  0  0  0  0  0  0
   -7.7549   -2.1286   35.3071 H   0  0  0  0  0  0  0  0  0  0  0  0
   -8.1203   -0.4634   34.8248 H   0  0  0  0  0  0  0  0  0  0  0  0
   -5.4808   -2.9435   34.5685 H   0  0  0  0  0  0  0  0  0  0  0  0
   -4.6598   -1.4216   34.8650 H   0  0  0  0  0  0  0  0  0  0  0  0
   -4.0014   -3.2334   32.9233 H   0  0  0  0  0  0  0  0  0  0  0  0
   -5.1593   -2.2942   31.9740 H   0  0  0  0  0  0  0  0  0  0  0  0
   -3.7675    0.2656   33.8120 H   0  0  0  0  0  0  0  0  0  0  0  0
   -1.8548    1.6641   33.2064 H   0  0  0  0  0  0  0  0  0  0  0  0
   -0.2951    1.0464   31.3975 H   0  0  0  0  0  0  0  0  0  0  0  0
    0.5661   -0.8505   27.3179 H   0  0  0  0  0  0  0  0  0  0  0  0
    1.1847   -2.3574   28.0210 H   0  0  0  0  0  0  0  0  0  0  0  0
    4.0073   -2.8595   27.6315 H   0  0  0  0  0  0  0  0  0  0  0  0
    6.0635   -3.0387   25.9243 H   0  0  0  0  0  0  0  0  0  0  0  0
    7.1135   -2.0351   23.8733 H   0  0  0  0  0  0  0  0  0  0  0  0
    6.1091    0.0433   22.9136 H   0  0  0  0  0  0  0  0  0  0  0  0
    4.1376    1.0978   23.9689 H   0  0  0  0  0  0  0  0  0  0  0  0
   -2.4895   -2.6184   30.8245 H   0  0  0  0  0  0  0  0  0  0  0  0
  1  2  1  0
  2  3  1  0
  3  4  1  0
  4  5  1  0
  5  6  2  0
  6  7  1  0
  7  8  2  0
  8  9  1  0
  9 10  1  0
 10 11  1  0
 11 12  2  0
 11 13  1  0
 13 14  1  0
 14 15  2  0
 15 16  1  0
 16 17  1  0
 17 18  2  0
 18 19  1  0
 19 20  2  0
 20 21  1  0
 21 22  2  0
  9 23  2  0
 23  5  1  0
 22 14  1  0
 21 16  1  0
  1 24  1  0
  1 25  1  0
  1 26  1  0
  3 27  1  0
  3 28  1  0
  4 29  1  0
  4 30  1  0
  6 31  1  0
  7 32  1  0
  8 33  1  0
 13 34  1  0
 13 35  1  0
 15 36  1  0
 17 37  1  0
 18 38  1  0
 19 39  1  0
 20 40  1  0
 23 41  1  0
M  END
>  <Energy>  (487) 
108.26971656815084

>  <compound_id>  (487) 
76840

>  <target_id>  (487) 
1

>  <reference_id>  (487) 
7

>  <inspiration_ids>  (487) 
[7, 103]

>  <energy_score>  (487) 
0.6039203586924771

>  <distance_score>  (487) 
12.35773193110548

>  <path>  (487) 
/opt/xchem-fragalysis-2/maxwin/BulkDock/SCRATCH/511024/C76840-P7/C76840-P7.minimised.mol

>  <scratch_subdir>  (487) 
/opt/xchem-fragalysis-2/maxwin/BulkDock/SCRATCH/511024/C76840-P7

>  <fragmenstein_runtime>  (487) 
6.553627014160156

>  <fragmenstein_outcome>  (487) 
too moved

>  <fragmenstein_mode>  (487) 
expansion

>  <fragmenstein_error>  (487) 


$$$$
C76840-P103
     RDKit          3D

 41 43  0  0  0  0  0  0  0  0999 V2000
   -7.5929   -1.0497   34.9140 C   0  0  0  0  0  0  0  0  0  0  0  0
   -6.3271   -1.6000   34.5484 O   0  0  0  0  0  0  0  0  0  0  0  0
   -6.0650   -1.5312   33.1389 C   0  0  0  0  0  0  0  0  0  0  0  0
   -4.7166   -2.2355   32.7558 C   0  0  0  0  0  0  0  0  0  0  0  0
   -3.4979   -1.3308   32.4617 C   0  0  0  0  0  0  0  0  0  0  0  0
   -3.3243   -0.1841   33.2496 C   0  0  0  0  0  0  0  0  0  0  0  0
   -2.2701    0.6984   32.9909 C   0  0  0  0  0  0  0  0  0  0  0  0
   -1.3570    0.4638   31.9471 C   0  0  0  0  0  0  0  0  0  0  0  0
   -1.4612   -0.6940   31.1713 C   0  0  0  0  0  0  0  0  0  0  0  0
   -0.3707   -0.8249   30.0670 O   0  0  0  0  0  0  0  0  0  0  0  0
    0.4357   -1.4639   28.9422 C   0  0  0  0  0  0  0  0  0  0  0  0
    0.1921   -2.6037   28.5702 O   0  0  0  0  0  0  0  0  0  0  0  0
    1.5566   -0.4937   28.4236 C   0  0  0  0  0  0  0  0  0  0  0  0
    2.5651   -0.8730   27.2649 C   0  0  0  0  0  0  0  0  0  0  0  0
    3.2455   -2.0445   26.9517 C   0  0  0  0  0  0  0  0  0  0  0  0
    4.0576   -1.7887   25.8515 N   0  0  0  0  0  0  0  0  0  0  0  0
    4.9196   -2.6360   25.1372 C   0  0  0  0  0  0  0  0  0  0  0  0
    5.6254   -2.1542   24.0961 C   0  0  0  0  0  0  0  0  0  0  0  0
    5.4708   -0.7527   23.7375 C   0  0  0  0  0  0  0  0  0  0  0  0
    4.6460    0.0608   24.4319 C   0  0  0  0  0  0  0  0  0  0  0  0
    3.8944   -0.4436   25.5459 C   0  0  0  0  0  0  0  0  0  0  0  0
    3.0406    0.1284   26.3863 N   0  0  0  0  0  0  0  0  0  0  0  0
   -2.5123   -1.6114   31.4318 C   0  0  0  0  0  0  0  0  0  0  0  0
   -8.4056   -1.6225   34.4663 H   0  0  0  0  0  0  0  0  0  0  0  0
   -7.6890   -1.0965   36.0018 H   0  0  0  0  0  0  0  0  0  0  0  0
   -7.6454   -0.0008   34.6090 H   0  0  0  0  0  0  0  0  0  0  0  0
   -6.8781   -2.0343   32.6138 H   0  0  0  0  0  0  0  0  0  0  0  0
   -6.0708   -0.4828   32.8211 H   0  0  0  0  0  0  0  0  0  0  0  0
   -4.4266   -2.9449   33.5395 H   0  0  0  0  0  0  0  0  0  0  0  0
   -4.8999   -2.8076   31.8378 H   0  0  0  0  0  0  0  0  0  0  0  0
   -3.9959    0.0275   34.0796 H   0  0  0  0  0  0  0  0  0  0  0  0
   -2.1420    1.5775   33.6192 H   0  0  0  0  0  0  0  0  0  0  0  0
   -0.5503    1.1683   31.7642 H   0  0  0  0  0  0  0  0  0  0  0  0
    2.1789   -0.2459   29.2921 H   0  0  0  0  0  0  0  0  0  0  0  0
    1.0414    0.4173   28.0951 H   0  0  0  0  0  0  0  0  0  0  0  0
    3.2023   -3.0321   27.3856 H   0  0  0  0  0  0  0  0  0  0  0  0
    4.9700   -3.6663   25.4634 H   0  0  0  0  0  0  0  0  0  0  0  0
    6.2958   -2.7808   23.5195 H   0  0  0  0  0  0  0  0  0  0  0  0
    6.0381   -0.3756   22.8937 H   0  0  0  0  0  0  0  0  0  0  0  0
    4.5244    1.1054   24.1716 H   0  0  0  0  0  0  0  0  0  0  0  0
   -2.5931   -2.5124   30.8292 H   0  0  0  0  0  0  0  0  0  0  0  0
  1  2  1  0
  2  3  1  0
  3  4  1  0
  4  5  1  0
  5  6  2  0
  6  7  1  0
  7  8  2  0
  8  9  1  0
  9 10  1  0
 10 11  1  0
 11 12  2  0
 11 13  1  0
 13 14  1  0
 14 15  2  0
 15 16  1  0
 16 17  1  0
 17 18  2  0
 18 19  1  0
 19 20  2  0
 20 21  1  0
 21 22  2  0
  9 23  2  0
 23  5  1  0
 22 14  1  0
 21 16  1  0
  1 24  1  0
  1 25  1  0
  1 26  1  0
  3 27  1  0
  3 28  1  0
  4 29  1  0
  4 30  1  0
  6 31  1  0
  7 32  1  0
  8 33  1  0
 13 34  1  0
 13 35  1  0
 15 36  1  0
 17 37  1  0
 18 38  1  0
 19 39  1  0
 20 40  1  0
 23 41  1  0
M  END
>  <Energy>  (488) 
116.39679109532935

>  <compound_id>  (488) 
76840

>  <target_id>  (488) 
1

>  <reference_id>  (488) 
103

>  <inspiration_ids>  (488) 
[7, 103]

>  <energy_score>  (488) 
8.73099488587303

>  <distance_score>  (488) 
12.358987873477199

>  <path>  (488) 
/opt/xchem-fragalysis-2/maxwin/BulkDock/SCRATCH/511024/C76840-P103/C76840-P103.minimised.mol

>  <scratch_subdir>  (488) 
/opt/xchem-fragalysis-2/maxwin/BulkDock/SCRATCH/511024/C76840-P103

>  <fragmenstein_runtime>  (488) 
7.816892385482788

>  <fragmenstein_outcome>  (488) 
too moved

>  <fragmenstein_mode>  (488) 
expansion

>  <fragmenstein_error>  (488) 


$$$$
C53093-P107
     RDKit          3D

 37 40  0  0  0  0  0  0  0  0999 V2000
   -9.8562  -17.8106   20.7474 C   0  0  0  0  0  0  0  0  0  0  0  0
   -9.7835  -16.3276   20.4390 C   0  0  0  0  0  0  0  0  0  0  0  0
  -10.7790  -15.4400   21.1317 C   0  0  0  0  0  0  0  0  0  0  0  0
  -10.6200  -14.1208   20.9345 C   0  0  0  0  0  0  0  0  0  0  0  0
   -9.5963  -13.6633   20.1033 N   0  0  0  0  0  0  0  0  0  0  0  0
   -9.1293  -12.3775   19.8432 C   0  0  0  0  0  0  0  0  0  0  0  0
   -8.0056  -12.4820   19.0113 C   0  0  0  0  0  0  0  0  0  0  0  0
   -7.3014  -11.3539   18.1540 C   0  0  0  0  0  0  0  0  0  0  0  0
   -5.8633  -10.8823   18.1758 N   0  0  0  0  0  0  0  0  0  0  0  0
   -5.2954   -9.5280   18.3038 C   0  0  0  0  0  0  0  0  0  0  0  0
   -5.8333   -8.4738   18.5040 O   0  0  0  0  0  0  0  0  0  0  0  0
   -3.7474   -9.3240   18.0403 C   0  0  0  0  0  0  0  0  0  0  0  0
   -3.0551   -8.1579   18.4197 C   0  0  0  0  0  0  0  0  0  0  0  0
   -1.8178   -8.1545   17.8125 N   0  0  0  0  0  0  0  0  0  0  0  0
   -0.7897   -7.1954   17.8509 C   0  0  0  0  0  0  0  0  0  0  0  0
    0.3419   -7.3982   17.1502 C   0  0  0  0  0  0  0  0  0  0  0  0
    0.4608   -8.6190   16.3679 C   0  0  0  0  0  0  0  0  0  0  0  0
   -0.5340   -9.5353   16.3342 C   0  0  0  0  0  0  0  0  0  0  0  0
   -1.7498   -9.3344   17.0799 C   0  0  0  0  0  0  0  0  0  0  0  0
   -2.8692  -10.0562   17.2177 N   0  0  0  0  0  0  0  0  0  0  0  0
   -7.8545  -13.8418   18.7454 N   0  0  0  0  0  0  0  0  0  0  0  0
   -8.7564  -14.5408   19.4290 C   0  0  0  0  0  0  0  0  0  0  0  0
   -8.8597  -15.8973   19.6250 N   0  0  0  0  0  0  0  0  0  0  0  0
   -9.4272  -17.9925   21.7361 H   0  0  0  0  0  0  0  0  0  0  0  0
  -10.8943  -18.1492   20.7117 H   0  0  0  0  0  0  0  0  0  0  0  0
   -9.2829  -18.3748   20.0058 H   0  0  0  0  0  0  0  0  0  0  0  0
  -11.5717  -15.8593   21.7289 H   0  0  0  0  0  0  0  0  0  0  0  0
  -11.2561  -13.3722   21.3894 H   0  0  0  0  0  0  0  0  0  0  0  0
   -9.6557  -11.5110   20.2183 H   0  0  0  0  0  0  0  0  0  0  0  0
   -7.4655  -11.6451   17.1085 H   0  0  0  0  0  0  0  0  0  0  0  0
   -7.8944  -10.4437   18.3122 H   0  0  0  0  0  0  0  0  0  0  0  0
   -5.1238  -11.5293   17.9250 H   0  0  0  0  0  0  0  0  0  0  0  0
   -3.3893   -7.3184   19.0127 H   0  0  0  0  0  0  0  0  0  0  0  0
   -0.9633   -6.3149   18.4565 H   0  0  0  0  0  0  0  0  0  0  0  0
    1.1601   -6.6865   17.1504 H   0  0  0  0  0  0  0  0  0  0  0  0
    1.3808   -8.7846   15.8148 H   0  0  0  0  0  0  0  0  0  0  0  0
   -0.4379  -10.4520   15.7631 H   0  0  0  0  0  0  0  0  0  0  0  0
  1  2  1  0
  2  3  1  0
  3  4  2  0
  4  5  1  0
  5  6  1  0
  6  7  2  0
  7  8  1  0
  8  9  1  0
  9 10  1  0
 10 11  2  0
 10 12  1  0
 12 13  2  0
 13 14  1  0
 14 15  1  0
 15 16  2  0
 16 17  1  0
 17 18  2  0
 18 19  1  0
 19 20  2  0
  7 21  1  0
 21 22  2  0
 22 23  1  0
 23  2  2  0
 22  5  1  0
 20 12  1  0
 19 14  1  0
  1 24  1  0
  1 25  1  0
  1 26  1  0
  3 27  1  0
  4 28  1  0
  6 29  1  0
  8 30  1  0
  8 31  1  0
  9 32  1  0
 13 33  1  0
 15 34  1  0
 16 35  1  0
 17 36  1  0
 18 37  1  0
M  END
>  <Energy>  (489) 
96.242219006979511

>  <compound_id>  (489) 
53093

>  <target_id>  (489) 
1

>  <reference_id>  (489) 
107

>  <inspiration_ids>  (489) 
[107, 8]

>  <energy_score>  (489) 
9.462983189978615

>  <distance_score>  (489) 
15.879595975707938

>  <path>  (489) 
/opt/xchem-fragalysis-2/maxwin/BulkDock/SCRATCH/511024/C53093-P107/C53093-P107.minimised.mol

>  <scratch_subdir>  (489) 
/opt/xchem-fragalysis-2/maxwin/BulkDock/SCRATCH/511024/C53093-P107

>  <fragmenstein_runtime>  (489) 
23.77356791496277

>  <fragmenstein_outcome>  (489) 
too moved

>  <fragmenstein_mode>  (489) 
expansion

>  <fragmenstein_error>  (489) 


$$$$
C53093-P8
     RDKit          3D

 37 40  0  0  0  0  0  0  0  0999 V2000
   -3.8800  -21.4668   27.3015 C   0  0  0  0  0  0  0  0  0  0  0  0
   -3.4158  -20.1813   27.9491 C   0  0  0  0  0  0  0  0  0  0  0  0
   -4.4374  -19.3483   28.6578 C   0  0  0  0  0  0  0  0  0  0  0  0
   -3.9908  -18.3631   29.4374 C   0  0  0  0  0  0  0  0  0  0  0  0
   -2.6774  -17.9845   29.2592 N   0  0  0  0  0  0  0  0  0  0  0  0
   -2.0989  -16.7919   29.6015 C   0  0  0  0  0  0  0  0  0  0  0  0
   -1.1468  -16.5774   28.6019 C   0  0  0  0  0  0  0  0  0  0  0  0
   -0.8714  -14.9531   27.9640 C   0  0  0  0  0  0  0  0  0  0  0  0
    0.7680  -14.1680   26.8863 N   0  0  0  0  0  0  0  0  0  0  0  0
    0.9544  -13.8395   25.1495 C   0  0  0  0  0  0  0  0  0  0  0  0
    0.1215  -14.1080   24.2487 O   0  0  0  0  0  0  0  0  0  0  0  0
    2.5721  -13.1702   24.3566 C   0  0  0  0  0  0  0  0  0  0  0  0
    3.8604  -13.9006   24.4172 C   0  0  0  0  0  0  0  0  0  0  0  0
    4.7456  -13.5587   23.4162 N   0  0  0  0  0  0  0  0  0  0  0  0
    6.0613  -13.9887   23.1880 C   0  0  0  0  0  0  0  0  0  0  0  0
    6.8587  -13.3208   22.3329 C   0  0  0  0  0  0  0  0  0  0  0  0
    6.3700  -12.0833   21.7696 C   0  0  0  0  0  0  0  0  0  0  0  0
    5.0986  -11.7016   21.9878 C   0  0  0  0  0  0  0  0  0  0  0  0
    4.1495  -12.5514   22.7164 C   0  0  0  0  0  0  0  0  0  0  0  0
    2.8703  -12.3455   23.1859 N   0  0  0  0  0  0  0  0  0  0  0  0
   -0.9100  -17.7716   27.9365 N   0  0  0  0  0  0  0  0  0  0  0  0
   -1.8374  -18.6208   28.3523 C   0  0  0  0  0  0  0  0  0  0  0  0
   -2.1559  -19.8531   27.8482 N   0  0  0  0  0  0  0  0  0  0  0  0
   -4.9461  -21.6340   27.4270 H   0  0  0  0  0  0  0  0  0  0  0  0
   -3.6561  -21.4266   26.2312 H   0  0  0  0  0  0  0  0  0  0  0  0
   -3.3356  -22.3060   27.7442 H   0  0  0  0  0  0  0  0  0  0  0  0
   -5.4750  -19.3857   28.4035 H   0  0  0  0  0  0  0  0  0  0  0  0
   -4.6438  -17.6890   29.9754 H   0  0  0  0  0  0  0  0  0  0  0  0
   -2.5990  -16.0988   30.2630 H   0  0  0  0  0  0  0  0  0  0  0  0
   -1.7920  -14.9376   27.3270 H   0  0  0  0  0  0  0  0  0  0  0  0
   -1.1471  -14.6776   28.9820 H   0  0  0  0  0  0  0  0  0  0  0  0
    1.5947  -13.9374   27.3388 H   0  0  0  0  0  0  0  0  0  0  0  0
    4.2126  -14.6231   25.1371 H   0  0  0  0  0  0  0  0  0  0  0  0
    6.3903  -14.8626   23.7360 H   0  0  0  0  0  0  0  0  0  0  0  0
    7.8791  -13.6307   22.1358 H   0  0  0  0  0  0  0  0  0  0  0  0
    7.0729  -11.4306   21.2615 H   0  0  0  0  0  0  0  0  0  0  0  0
    4.8025  -10.6904   21.7250 H   0  0  0  0  0  0  0  0  0  0  0  0
  1  2  1  0
  2  3  1  0
  3  4  2  0
  4  5  1  0
  5  6  1  0
  6  7  2  0
  7  8  1  0
  8  9  1  0
  9 10  1  0
 10 11  2  0
 10 12  1  0
 12 13  2  0
 13 14  1  0
 14 15  1  0
 15 16  2  0
 16 17  1  0
 17 18  2  0
 18 19  1  0
 19 20  2  0
  7 21  1  0
 21 22  2  0
 22 23  1  0
 23  2  2  0
 22  5  1  0
 20 12  1  0
 19 14  1  0
  1 24  1  0
  1 25  1  0
  1 26  1  0
  3 27  1  0
  4 28  1  0
  6 29  1  0
  8 30  1  0
  8 31  1  0
  9 32  1  0
 13 33  1  0
 15 34  1  0
 16 35  1  0
 17 36  1  0
 18 37  1  0
M  END
>  <Energy>  (490) 
402.51728202199956

>  <compound_id>  (490) 
53093

>  <target_id>  (490) 
1

>  <reference_id>  (490) 
8

>  <inspiration_ids>  (490) 
[107, 8]

>  <energy_score>  (490) 
315.7380462049942

>  <distance_score>  (490) 
13.958418822944957

>  <path>  (490) 
/opt/xchem-fragalysis-2/maxwin/BulkDock/SCRATCH/511024/C53093-P8/C53093-P8.minimised.mol

>  <scratch_subdir>  (490) 
/opt/xchem-fragalysis-2/maxwin/BulkDock/SCRATCH/511024/C53093-P8

>  <fragmenstein_runtime>  (490) 
15.010301113128662

>  <fragmenstein_outcome>  (490) 
too moved

>  <fragmenstein_mode>  (490) 
expansion

>  <fragmenstein_error>  (490) 


$$$$
C53095-P107
     RDKit          3D

 31 34  0  0  0  0  0  0  0  0999 V2000
    9.9031   -8.9272   15.3987 O   0  0  0  0  0  0  0  0  0  0  0  0
    9.5862   -7.7292   15.2945 C   0  0  0  0  0  0  0  0  0  0  0  0
    8.1000   -7.1404   14.9870 N   0  0  0  0  0  0  0  0  0  0  0  0
    6.1751   -8.1455   14.8088 S   0  0  0  0  0  0  0  0  0  0  0  0
    5.3590   -7.3232   15.6915 O   0  0  0  0  0  0  0  0  0  0  0  0
    5.8280   -8.3577   13.4184 O   0  0  0  0  0  0  0  0  0  0  0  0
    5.6887   -9.8263   15.7378 C   0  0  0  0  0  0  0  0  0  0  0  0
    6.4214  -10.8884   16.2899 C   0  0  0  0  0  0  0  0  0  0  0  0
    5.6319  -11.9052   16.8359 N   0  0  0  0  0  0  0  0  0  0  0  0
    4.4224  -11.5028   16.5856 C   0  0  0  0  0  0  0  0  0  0  0  0
    2.8542  -12.2350   16.7884 S   0  0  0  0  0  0  0  0  0  0  0  0
    2.1331  -10.7010   16.3204 C   0  0  0  0  0  0  0  0  0  0  0  0
    3.0479   -9.7864   15.9312 C   0  0  0  0  0  0  0  0  0  0  0  0
    4.3584  -10.2404   16.0359 N   0  0  0  0  0  0  0  0  0  0  0  0
   11.0158   -6.4178   15.6827 C   0  0  0  0  0  0  0  0  0  0  0  0
   12.2937   -6.4505   16.2182 C   0  0  0  0  0  0  0  0  0  0  0  0
   12.9905   -5.3953   16.7712 N   0  0  0  0  0  0  0  0  0  0  0  0
   12.2049   -4.3769   16.6829 C   0  0  0  0  0  0  0  0  0  0  0  0
   12.4803   -3.0956   17.0669 N   0  0  0  0  0  0  0  0  0  0  0  0
   12.0841   -2.1749   16.2530 C   0  0  0  0  0  0  0  0  0  0  0  0
   11.3705   -2.4181   14.9907 C   0  0  0  0  0  0  0  0  0  0  0  0
   10.9723   -3.6851   14.8098 C   0  0  0  0  0  0  0  0  0  0  0  0
   11.1956   -4.7053   15.7628 N   0  0  0  0  0  0  0  0  0  0  0  0
    8.1339   -6.1328   15.0477 H   0  0  0  0  0  0  0  0  0  0  0  0
    7.5037  -10.9713   16.2969 H   0  0  0  0  0  0  0  0  0  0  0  0
    1.0617  -10.5501   16.3211 H   0  0  0  0  0  0  0  0  0  0  0  0
    2.8509   -8.7896   15.5655 H   0  0  0  0  0  0  0  0  0  0  0  0
   12.5518   -7.4179   16.3169 H   0  0  0  0  0  0  0  0  0  0  0  0
   12.2961   -1.1184   16.4848 H   0  0  0  0  0  0  0  0  0  0  0  0
   11.3473   -1.6503   14.2311 H   0  0  0  0  0  0  0  0  0  0  0  0
   10.7712   -4.0032   13.8150 H   0  0  0  0  0  0  0  0  0  0  0  0
  1  2  2  0
  2  3  1  0
  3  4  1  0
  4  5  2  0
  4  6  2  0
  4  7  1  0
  7  8  2  0
  8  9  1  0
  9 10  2  0
 10 11  1  0
 11 12  1  0
 12 13  2  0
 13 14  1  0
  2 15  1  0
 15 16  2  0
 16 17  1  0
 17 18  2  0
 18 19  1  0
 19 20  2  0
 20 21  1  0
 21 22  2  0
 22 23  1  0
 14  7  1  0
 23 15  1  0
 14 10  1  0
 23 18  1  0
  3 24  1  0
  8 25  1  0
 12 26  1  0
 13 27  1  0
 16 28  1  0
 20 29  1  0
 21 30  1  0
 22 31  1  0
M  END
>  <Energy>  (491) 
122.74851307041678

>  <compound_id>  (491) 
53095

>  <target_id>  (491) 
1

>  <reference_id>  (491) 
107

>  <inspiration_ids>  (491) 
[107, 8]

>  <energy_score>  (491) 
208.59977417817447

>  <distance_score>  (491) 
17.52169767400716

>  <path>  (491) 
/opt/xchem-fragalysis-2/maxwin/BulkDock/SCRATCH/511024/C53095-P107/C53095-P107.minimised.mol

>  <scratch_subdir>  (491) 
/opt/xchem-fragalysis-2/maxwin/BulkDock/SCRATCH/511024/C53095-P107

>  <fragmenstein_runtime>  (491) 
23.752708911895752

>  <fragmenstein_outcome>  (491) 
too moved

>  <fragmenstein_mode>  (491) 
expansion

>  <fragmenstein_error>  (491) 


$$$$
C53095-P8
     RDKit          3D

 31 34  0  0  0  0  0  0  0  0999 V2000
    5.1337  -12.9303   28.6472 O   0  0  0  0  0  0  0  0  0  0  0  0
    5.0917  -13.2402   27.4904 C   0  0  0  0  0  0  0  0  0  0  0  0
    4.1261  -14.7044   26.8190 N   0  0  0  0  0  0  0  0  0  0  0  0
    2.9864  -16.3094   27.8781 S   0  0  0  0  0  0  0  0  0  0  0  0
    2.9513  -17.3267   26.8406 O   0  0  0  0  0  0  0  0  0  0  0  0
    2.2536  -15.1273   28.0932 O   0  0  0  0  0  0  0  0  0  0  0  0
    0.8033  -16.7211   28.3735 C   0  0  0  0  0  0  0  0  0  0  0  0
   -0.5877  -15.7032   28.8255 C   0  0  0  0  0  0  0  0  0  0  0  0
   -1.5696  -15.4287   28.0362 N   0  0  0  0  0  0  0  0  0  0  0  0
   -1.5081  -16.6451   27.6671 C   0  0  0  0  0  0  0  0  0  0  0  0
   -2.8058  -17.2474   27.0842 S   0  0  0  0  0  0  0  0  0  0  0  0
   -1.9150  -18.5285   26.4247 C   0  0  0  0  0  0  0  0  0  0  0  0
   -0.6254  -18.3724   26.6587 C   0  0  0  0  0  0  0  0  0  0  0  0
   -0.3250  -17.4758   27.5985 N   0  0  0  0  0  0  0  0  0  0  0  0
    6.1204  -12.2759   26.6235 C   0  0  0  0  0  0  0  0  0  0  0  0
    6.3339  -10.9502   27.1579 C   0  0  0  0  0  0  0  0  0  0  0  0
    7.0538  -10.1093   26.3419 N   0  0  0  0  0  0  0  0  0  0  0  0
    7.5512  -10.9049   25.4303 C   0  0  0  0  0  0  0  0  0  0  0  0
    8.3817  -10.5831   24.3937 N   0  0  0  0  0  0  0  0  0  0  0  0
    9.3080  -11.4568   24.1604 C   0  0  0  0  0  0  0  0  0  0  0  0
    9.4635  -12.7453   24.8909 C   0  0  0  0  0  0  0  0  0  0  0  0
    8.4484  -13.0940   25.7077 C   0  0  0  0  0  0  0  0  0  0  0  0
    7.3551  -12.2374   25.8796 N   0  0  0  0  0  0  0  0  0  0  0  0
    4.1786  -14.7104   25.8041 H   0  0  0  0  0  0  0  0  0  0  0  0
   -0.6604  -15.3347   29.8992 H   0  0  0  0  0  0  0  0  0  0  0  0
   -2.4067  -19.3194   25.8917 H   0  0  0  0  0  0  0  0  0  0  0  0
    0.1917  -18.8278   26.1905 H   0  0  0  0  0  0  0  0  0  0  0  0
    5.8446  -10.5502   28.0430 H   0  0  0  0  0  0  0  0  0  0  0  0
   10.0456  -11.2725   23.3619 H   0  0  0  0  0  0  0  0  0  0  0  0
   10.3358  -13.3585   24.7119 H   0  0  0  0  0  0  0  0  0  0  0  0
    8.4486  -14.0266   26.2616 H   0  0  0  0  0  0  0  0  0  0  0  0
  1  2  2  0
  2  3  1  0
  3  4  1  0
  4  5  2  0
  4  6  2  0
  4  7  1  0
  7  8  2  0
  8  9  1  0
  9 10  2  0
 10 11  1  0
 11 12  1  0
 12 13  2  0
 13 14  1  0
  2 15  1  0
 15 16  2  0
 16 17  1  0
 17 18  2  0
 18 19  1  0
 19 20  2  0
 20 21  1  0
 21 22  2  0
 22 23  1  0
 14  7  1  0
 23 15  1  0
 14 10  1  0
 23 18  1  0
  3 24  1  0
  8 25  1  0
 12 26  1  0
 13 27  1  0
 16 28  1  0
 20 29  1  0
 21 30  1  0
 22 31  1  0
M  END
>  <Energy>  (492) 
382.27259182847689

>  <compound_id>  (492) 
53095

>  <target_id>  (492) 
1

>  <reference_id>  (492) 
8

>  <inspiration_ids>  (492) 
[107, 8]

>  <energy_score>  (492) 
468.1238529362396

>  <distance_score>  (492) 
14.735007683299893

>  <path>  (492) 
/opt/xchem-fragalysis-2/maxwin/BulkDock/SCRATCH/511024/C53095-P8/C53095-P8.minimised.mol

>  <scratch_subdir>  (492) 
/opt/xchem-fragalysis-2/maxwin/BulkDock/SCRATCH/511024/C53095-P8

>  <fragmenstein_runtime>  (492) 
27.719802618026733

>  <fragmenstein_outcome>  (492) 
too moved

>  <fragmenstein_mode>  (492) 
expansion

>  <fragmenstein_error>  (492) 


$$$$
C53093-P107
     RDKit          3D

 37 40  0  0  0  0  0  0  0  0999 V2000
   -9.8562  -17.8106   20.7474 C   0  0  0  0  0  0  0  0  0  0  0  0
   -9.7835  -16.3276   20.4390 C   0  0  0  0  0  0  0  0  0  0  0  0
  -10.7790  -15.4400   21.1317 C   0  0  0  0  0  0  0  0  0  0  0  0
  -10.6200  -14.1208   20.9345 C   0  0  0  0  0  0  0  0  0  0  0  0
   -9.5963  -13.6633   20.1033 N   0  0  0  0  0  0  0  0  0  0  0  0
   -9.1293  -12.3775   19.8432 C   0  0  0  0  0  0  0  0  0  0  0  0
   -8.0056  -12.4820   19.0113 C   0  0  0  0  0  0  0  0  0  0  0  0
   -7.3014  -11.3539   18.1540 C   0  0  0  0  0  0  0  0  0  0  0  0
   -5.8633  -10.8823   18.1758 N   0  0  0  0  0  0  0  0  0  0  0  0
   -5.2954   -9.5280   18.3038 C   0  0  0  0  0  0  0  0  0  0  0  0
   -5.8333   -8.4738   18.5040 O   0  0  0  0  0  0  0  0  0  0  0  0
   -3.7474   -9.3240   18.0403 C   0  0  0  0  0  0  0  0  0  0  0  0
   -3.0551   -8.1579   18.4197 C   0  0  0  0  0  0  0  0  0  0  0  0
   -1.8178   -8.1545   17.8125 N   0  0  0  0  0  0  0  0  0  0  0  0
   -0.7897   -7.1954   17.8509 C   0  0  0  0  0  0  0  0  0  0  0  0
    0.3419   -7.3982   17.1502 C   0  0  0  0  0  0  0  0  0  0  0  0
    0.4608   -8.6190   16.3679 C   0  0  0  0  0  0  0  0  0  0  0  0
   -0.5340   -9.5353   16.3342 C   0  0  0  0  0  0  0  0  0  0  0  0
   -1.7498   -9.3344   17.0799 C   0  0  0  0  0  0  0  0  0  0  0  0
   -2.8692  -10.0562   17.2177 N   0  0  0  0  0  0  0  0  0  0  0  0
   -7.8545  -13.8418   18.7454 N   0  0  0  0  0  0  0  0  0  0  0  0
   -8.7564  -14.5408   19.4290 C   0  0  0  0  0  0  0  0  0  0  0  0
   -8.8597  -15.8973   19.6250 N   0  0  0  0  0  0  0  0  0  0  0  0
   -9.4272  -17.9925   21.7361 H   0  0  0  0  0  0  0  0  0  0  0  0
  -10.8943  -18.1492   20.7117 H   0  0  0  0  0  0  0  0  0  0  0  0
   -9.2829  -18.3748   20.0058 H   0  0  0  0  0  0  0  0  0  0  0  0
  -11.5717  -15.8593   21.7289 H   0  0  0  0  0  0  0  0  0  0  0  0
  -11.2561  -13.3722   21.3894 H   0  0  0  0  0  0  0  0  0  0  0  0
   -9.6557  -11.5110   20.2183 H   0  0  0  0  0  0  0  0  0  0  0  0
   -7.4655  -11.6451   17.1085 H   0  0  0  0  0  0  0  0  0  0  0  0
   -7.8944  -10.4437   18.3122 H   0  0  0  0  0  0  0  0  0  0  0  0
   -5.1238  -11.5293   17.9250 H   0  0  0  0  0  0  0  0  0  0  0  0
   -3.3893   -7.3184   19.0127 H   0  0  0  0  0  0  0  0  0  0  0  0
   -0.9633   -6.3149   18.4565 H   0  0  0  0  0  0  0  0  0  0  0  0
    1.1601   -6.6865   17.1504 H   0  0  0  0  0  0  0  0  0  0  0  0
    1.3808   -8.7846   15.8148 H   0  0  0  0  0  0  0  0  0  0  0  0
   -0.4379  -10.4520   15.7631 H   0  0  0  0  0  0  0  0  0  0  0  0
  1  2  1  0
  2  3  1  0
  3  4  2  0
  4  5  1  0
  5  6  1  0
  6  7  2  0
  7  8  1  0
  8  9  1  0
  9 10  1  0
 10 11  2  0
 10 12  1  0
 12 13  2  0
 13 14  1  0
 14 15  1  0
 15 16  2  0
 16 17  1  0
 17 18  2  0
 18 19  1  0
 19 20  2  0
  7 21  1  0
 21 22  2  0
 22 23  1  0
 23  2  2  0
 22  5  1  0
 20 12  1  0
 19 14  1  0
  1 24  1  0
  1 25  1  0
  1 26  1  0
  3 27  1  0
  4 28  1  0
  6 29  1  0
  8 30  1  0
  8 31  1  0
  9 32  1  0
 13 33  1  0
 15 34  1  0
 16 35  1  0
 17 36  1  0
 18 37  1  0
M  END
>  <Energy>  (493) 
96.242219006979511

>  <compound_id>  (493) 
53093

>  <target_id>  (493) 
1

>  <reference_id>  (493) 
107

>  <inspiration_ids>  (493) 
[107, 8]

>  <energy_score>  (493) 
9.462983189978615

>  <distance_score>  (493) 
15.879595975707938

>  <path>  (493) 
/opt/xchem-fragalysis-2/maxwin/BulkDock/SCRATCH/511024/C53093-P107/C53093-P107.minimised.mol

>  <scratch_subdir>  (493) 
/opt/xchem-fragalysis-2/maxwin/BulkDock/SCRATCH/511024/C53093-P107

>  <fragmenstein_runtime>  (493) 
23.78098702430725

>  <fragmenstein_outcome>  (493) 
too moved

>  <fragmenstein_mode>  (493) 
expansion

>  <fragmenstein_error>  (493) 


$$$$
C53093-P8
     RDKit          3D

 37 40  0  0  0  0  0  0  0  0999 V2000
   -3.8800  -21.4668   27.3015 C   0  0  0  0  0  0  0  0  0  0  0  0
   -3.4158  -20.1813   27.9491 C   0  0  0  0  0  0  0  0  0  0  0  0
   -4.4374  -19.3483   28.6578 C   0  0  0  0  0  0  0  0  0  0  0  0
   -3.9908  -18.3631   29.4374 C   0  0  0  0  0  0  0  0  0  0  0  0
   -2.6774  -17.9845   29.2592 N   0  0  0  0  0  0  0  0  0  0  0  0
   -2.0989  -16.7919   29.6015 C   0  0  0  0  0  0  0  0  0  0  0  0
   -1.1468  -16.5774   28.6019 C   0  0  0  0  0  0  0  0  0  0  0  0
   -0.8714  -14.9531   27.9640 C   0  0  0  0  0  0  0  0  0  0  0  0
    0.7680  -14.1680   26.8863 N   0  0  0  0  0  0  0  0  0  0  0  0
    0.9544  -13.8395   25.1495 C   0  0  0  0  0  0  0  0  0  0  0  0
    0.1215  -14.1080   24.2487 O   0  0  0  0  0  0  0  0  0  0  0  0
    2.5721  -13.1702   24.3566 C   0  0  0  0  0  0  0  0  0  0  0  0
    3.8604  -13.9006   24.4172 C   0  0  0  0  0  0  0  0  0  0  0  0
    4.7456  -13.5587   23.4162 N   0  0  0  0  0  0  0  0  0  0  0  0
    6.0613  -13.9887   23.1880 C   0  0  0  0  0  0  0  0  0  0  0  0
    6.8587  -13.3208   22.3329 C   0  0  0  0  0  0  0  0  0  0  0  0
    6.3700  -12.0833   21.7696 C   0  0  0  0  0  0  0  0  0  0  0  0
    5.0986  -11.7016   21.9878 C   0  0  0  0  0  0  0  0  0  0  0  0
    4.1495  -12.5514   22.7164 C   0  0  0  0  0  0  0  0  0  0  0  0
    2.8703  -12.3455   23.1859 N   0  0  0  0  0  0  0  0  0  0  0  0
   -0.9100  -17.7716   27.9365 N   0  0  0  0  0  0  0  0  0  0  0  0
   -1.8374  -18.6208   28.3523 C   0  0  0  0  0  0  0  0  0  0  0  0
   -2.1559  -19.8531   27.8482 N   0  0  0  0  0  0  0  0  0  0  0  0
   -4.9461  -21.6340   27.4270 H   0  0  0  0  0  0  0  0  0  0  0  0
   -3.6561  -21.4266   26.2312 H   0  0  0  0  0  0  0  0  0  0  0  0
   -3.3356  -22.3060   27.7442 H   0  0  0  0  0  0  0  0  0  0  0  0
   -5.4750  -19.3857   28.4035 H   0  0  0  0  0  0  0  0  0  0  0  0
   -4.6438  -17.6890   29.9754 H   0  0  0  0  0  0  0  0  0  0  0  0
   -2.5990  -16.0988   30.2630 H   0  0  0  0  0  0  0  0  0  0  0  0
   -1.7920  -14.9376   27.3270 H   0  0  0  0  0  0  0  0  0  0  0  0
   -1.1471  -14.6776   28.9820 H   0  0  0  0  0  0  0  0  0  0  0  0
    1.5947  -13.9374   27.3388 H   0  0  0  0  0  0  0  0  0  0  0  0
    4.2126  -14.6231   25.1371 H   0  0  0  0  0  0  0  0  0  0  0  0
    6.3903  -14.8626   23.7360 H   0  0  0  0  0  0  0  0  0  0  0  0
    7.8791  -13.6307   22.1358 H   0  0  0  0  0  0  0  0  0  0  0  0
    7.0729  -11.4306   21.2615 H   0  0  0  0  0  0  0  0  0  0  0  0
    4.8025  -10.6904   21.7250 H   0  0  0  0  0  0  0  0  0  0  0  0
  1  2  1  0
  2  3  1  0
  3  4  2  0
  4  5  1  0
  5  6  1  0
  6  7  2  0
  7  8  1  0
  8  9  1  0
  9 10  1  0
 10 11  2  0
 10 12  1  0
 12 13  2  0
 13 14  1  0
 14 15  1  0
 15 16  2  0
 16 17  1  0
 17 18  2  0
 18 19  1  0
 19 20  2  0
  7 21  1  0
 21 22  2  0
 22 23  1  0
 23  2  2  0
 22  5  1  0
 20 12  1  0
 19 14  1  0
  1 24  1  0
  1 25  1  0
  1 26  1  0
  3 27  1  0
  4 28  1  0
  6 29  1  0
  8 30  1  0
  8 31  1  0
  9 32  1  0
 13 33  1  0
 15 34  1  0
 16 35  1  0
 17 36  1  0
 18 37  1  0
M  END
>  <Energy>  (494) 
402.51728202199956

>  <compound_id>  (494) 
53093

>  <target_id>  (494) 
1

>  <reference_id>  (494) 
8

>  <inspiration_ids>  (494) 
[107, 8]

>  <energy_score>  (494) 
315.7380462049942

>  <distance_score>  (494) 
13.958418822944957

>  <path>  (494) 
/opt/xchem-fragalysis-2/maxwin/BulkDock/SCRATCH/511024/C53093-P8/C53093-P8.minimised.mol

>  <scratch_subdir>  (494) 
/opt/xchem-fragalysis-2/maxwin/BulkDock/SCRATCH/511024/C53093-P8

>  <fragmenstein_runtime>  (494) 
19.456542491912842

>  <fragmenstein_outcome>  (494) 
too moved

>  <fragmenstein_mode>  (494) 
expansion

>  <fragmenstein_error>  (494) 


$$$$
C53098-P107
     RDKit          3D

 34 37  0  0  0  0  0  0  0  0999 V2000
   -6.8294   -8.8109   21.4735 O   0  0  0  0  0  0  0  0  0  0  0  0
   -6.1340   -9.6748   21.0104 C   0  0  0  0  0  0  0  0  0  0  0  0
   -4.7274   -9.6176   20.4942 N   0  0  0  0  0  0  0  0  0  0  0  0
   -3.7176   -8.4801   20.4902 C   0  0  0  0  0  0  0  0  0  0  0  0
   -2.2262   -8.4418   19.9140 C   0  0  0  0  0  0  0  0  0  0  0  0
   -1.0119   -8.7465   20.5400 C   0  0  0  0  0  0  0  0  0  0  0  0
    0.0194   -8.1460   19.8182 N   0  0  0  0  0  0  0  0  0  0  0  0
    1.3992   -8.0866   20.0674 C   0  0  0  0  0  0  0  0  0  0  0  0
    2.2084   -7.4132   19.2277 C   0  0  0  0  0  0  0  0  0  0  0  0
    1.6198   -6.7526   18.0736 C   0  0  0  0  0  0  0  0  0  0  0  0
    0.2897   -6.8015   17.8428 C   0  0  0  0  0  0  0  0  0  0  0  0
   -0.5811   -7.5117   18.7381 C   0  0  0  0  0  0  0  0  0  0  0  0
   -1.9012   -7.6640   18.7758 N   0  0  0  0  0  0  0  0  0  0  0  0
   -6.8679  -11.0023   20.9479 C   0  0  0  0  0  0  0  0  0  0  0  0
   -7.1239  -11.7868   19.8334 C   0  0  0  0  0  0  0  0  0  0  0  0
   -7.8683  -12.9169   20.1094 N   0  0  0  0  0  0  0  0  0  0  0  0
   -8.1684  -12.8602   21.3861 C   0  0  0  0  0  0  0  0  0  0  0  0
   -8.8089  -13.8161   22.1405 N   0  0  0  0  0  0  0  0  0  0  0  0
   -9.0871  -13.4880   23.3618 C   0  0  0  0  0  0  0  0  0  0  0  0
   -8.8064  -12.1732   23.9843 C   0  0  0  0  0  0  0  0  0  0  0  0
   -8.1321  -11.2996   23.2164 C   0  0  0  0  0  0  0  0  0  0  0  0
   -7.7048  -11.6443   21.9275 N   0  0  0  0  0  0  0  0  0  0  0  0
   -4.4233  -10.5520   20.2544 H   0  0  0  0  0  0  0  0  0  0  0  0
   -3.6313   -8.1945   21.5460 H   0  0  0  0  0  0  0  0  0  0  0  0
   -4.2482   -7.6486   20.0086 H   0  0  0  0  0  0  0  0  0  0  0  0
   -0.7914   -9.2458   21.4724 H   0  0  0  0  0  0  0  0  0  0  0  0
    1.7584   -8.6101   20.9448 H   0  0  0  0  0  0  0  0  0  0  0  0
    3.2795   -7.3621   19.3857 H   0  0  0  0  0  0  0  0  0  0  0  0
    2.2818   -6.2212   17.3974 H   0  0  0  0  0  0  0  0  0  0  0  0
   -0.1553   -6.3118   16.9846 H   0  0  0  0  0  0  0  0  0  0  0  0
   -6.7775  -11.5976   18.8242 H   0  0  0  0  0  0  0  0  0  0  0  0
   -9.5937  -14.2189   24.0132 H   0  0  0  0  0  0  0  0  0  0  0  0
   -9.1718  -11.9550   24.9776 H   0  0  0  0  0  0  0  0  0  0  0  0
   -7.9355  -10.2888   23.5447 H   0  0  0  0  0  0  0  0  0  0  0  0
  1  2  2  0
  2  3  1  0
  3  4  1  0
  4  5  1  0
  5  6  2  0
  6  7  1  0
  7  8  1  0
  8  9  2  0
  9 10  1  0
 10 11  2  0
 11 12  1  0
 12 13  2  0
  2 14  1  0
 14 15  2  0
 15 16  1  0
 16 17  2  0
 17 18  1  0
 18 19  2  0
 19 20  1  0
 20 21  2  0
 21 22  1  0
 13  5  1  0
 22 14  1  0
 12  7  1  0
 22 17  1  0
  3 23  1  0
  4 24  1  0
  4 25  1  0
  6 26  1  0
  8 27  1  0
  9 28  1  0
 10 29  1  0
 11 30  1  0
 15 31  1  0
 19 32  1  0
 20 33  1  0
 21 34  1  0
M  END
>  <Energy>  (495) 
48.785105795942499

>  <compound_id>  (495) 
53098

>  <target_id>  (495) 
1

>  <reference_id>  (495) 
107

>  <inspiration_ids>  (495) 
[107, 8]

>  <energy_score>  (495) 
8.448124562603823

>  <distance_score>  (495) 
15.589625525339192

>  <path>  (495) 
/opt/xchem-fragalysis-2/maxwin/BulkDock/SCRATCH/511024/C53098-P107/C53098-P107.minimised.mol

>  <scratch_subdir>  (495) 
/opt/xchem-fragalysis-2/maxwin/BulkDock/SCRATCH/511024/C53098-P107

>  <fragmenstein_runtime>  (495) 
27.079002857208252

>  <fragmenstein_outcome>  (495) 
too moved

>  <fragmenstein_mode>  (495) 
expansion

>  <fragmenstein_error>  (495) 


$$$$
C53098-P8
     RDKit          3D

 34 37  0  0  0  0  0  0  0  0999 V2000
   -3.4265   -7.7038   20.5959 O   0  0  0  0  0  0  0  0  0  0  0  0
   -2.6850   -8.4808   20.0703 C   0  0  0  0  0  0  0  0  0  0  0  0
   -1.3409   -8.2924   19.5290 N   0  0  0  0  0  0  0  0  0  0  0  0
   -0.5273   -7.0751   19.3746 C   0  0  0  0  0  0  0  0  0  0  0  0
    0.9909   -7.0955   19.2641 C   0  0  0  0  0  0  0  0  0  0  0  0
    1.9185   -8.0899   19.0115 C   0  0  0  0  0  0  0  0  0  0  0  0
    3.1678   -7.5098   19.1100 N   0  0  0  0  0  0  0  0  0  0  0  0
    4.4351   -8.0910   19.0442 C   0  0  0  0  0  0  0  0  0  0  0  0
    5.5175   -7.3319   19.2801 C   0  0  0  0  0  0  0  0  0  0  0  0
    5.3296   -5.9258   19.5858 C   0  0  0  0  0  0  0  0  0  0  0  0
    4.1083   -5.3606   19.6065 C   0  0  0  0  0  0  0  0  0  0  0  0
    2.9601   -6.1623   19.3680 C   0  0  0  0  0  0  0  0  0  0  0  0
    1.6753   -5.8811   19.4104 N   0  0  0  0  0  0  0  0  0  0  0  0
   -3.2732   -9.8363   19.8451 C   0  0  0  0  0  0  0  0  0  0  0  0
   -2.7382  -11.0354   19.3984 C   0  0  0  0  0  0  0  0  0  0  0  0
   -3.7046  -11.9519   19.0498 N   0  0  0  0  0  0  0  0  0  0  0  0
   -4.8571  -11.3755   19.3223 C   0  0  0  0  0  0  0  0  0  0  0  0
   -6.1321  -11.8532   19.1029 N   0  0  0  0  0  0  0  0  0  0  0  0
   -7.0623  -11.3363   19.8451 C   0  0  0  0  0  0  0  0  0  0  0  0
   -6.8934  -10.2007   20.7810 C   0  0  0  0  0  0  0  0  0  0  0  0
   -5.6770   -9.6309   20.7621 C   0  0  0  0  0  0  0  0  0  0  0  0
   -4.6276  -10.2065   20.0480 N   0  0  0  0  0  0  0  0  0  0  0  0
   -1.0421   -9.1462   19.0837 H   0  0  0  0  0  0  0  0  0  0  0  0
   -0.9114   -6.5880   18.4700 H   0  0  0  0  0  0  0  0  0  0  0  0
   -0.8010   -6.4214   20.2117 H   0  0  0  0  0  0  0  0  0  0  0  0
    1.8086   -9.1504   18.8424 H   0  0  0  0  0  0  0  0  0  0  0  0
    4.4778   -9.1553   18.8515 H   0  0  0  0  0  0  0  0  0  0  0  0
    6.5091   -7.7612   19.3068 H   0  0  0  0  0  0  0  0  0  0  0  0
    6.1917   -5.3229   19.8284 H   0  0  0  0  0  0  0  0  0  0  0  0
    3.9652   -4.3141   19.8499 H   0  0  0  0  0  0  0  0  0  0  0  0
   -1.6968  -11.2609   19.2119 H   0  0  0  0  0  0  0  0  0  0  0  0
   -8.0921  -11.7182   19.7517 H   0  0  0  0  0  0  0  0  0  0  0  0
   -7.7385   -9.8185   21.3323 H   0  0  0  0  0  0  0  0  0  0  0  0
   -5.4389   -8.7354   21.3167 H   0  0  0  0  0  0  0  0  0  0  0  0
  1  2  2  0
  2  3  1  0
  3  4  1  0
  4  5  1  0
  5  6  2  0
  6  7  1  0
  7  8  1  0
  8  9  2  0
  9 10  1  0
 10 11  2  0
 11 12  1  0
 12 13  2  0
  2 14  1  0
 14 15  2  0
 15 16  1  0
 16 17  2  0
 17 18  1  0
 18 19  2  0
 19 20  1  0
 20 21  2  0
 21 22  1  0
 13  5  1  0
 22 14  1  0
 12  7  1  0
 22 17  1  0
  3 23  1  0
  4 24  1  0
  4 25  1  0
  6 26  1  0
  8 27  1  0
  9 28  1  0
 10 29  1  0
 11 30  1  0
 15 31  1  0
 19 32  1  0
 20 33  1  0
 21 34  1  0
M  END
>  <Energy>  (496) 
24.500270993511265

>  <compound_id>  (496) 
53098

>  <target_id>  (496) 
1

>  <reference_id>  (496) 
8

>  <inspiration_ids>  (496) 
[107, 8]

>  <energy_score>  (496) 
-15.836710239827028

>  <distance_score>  (496) 
15.807174855201376

>  <path>  (496) 
/opt/xchem-fragalysis-2/maxwin/BulkDock/SCRATCH/511024/C53098-P8/C53098-P8.minimised.mol

>  <scratch_subdir>  (496) 
/opt/xchem-fragalysis-2/maxwin/BulkDock/SCRATCH/511024/C53098-P8

>  <fragmenstein_runtime>  (496) 
23.965371131896973

>  <fragmenstein_outcome>  (496) 
too moved

>  <fragmenstein_mode>  (496) 
expansion

>  <fragmenstein_error>  (496) 


$$$$
C53099-P107
     RDKit          3D

 37 40  0  0  0  0  0  0  0  0999 V2000
    3.7962  -15.3951   23.7829 O   0  0  0  0  0  0  0  0  0  0  0  0
    4.3776  -15.7534   22.8289 C   0  0  0  0  0  0  0  0  0  0  0  0
    4.9260  -17.9621   22.0702 C   0  0  0  0  0  0  0  0  0  0  0  0
    3.8379  -19.6668   21.9068 C   0  0  0  0  0  0  0  0  0  0  0  0
    2.4613  -19.8227   21.8068 C   0  0  0  0  0  0  0  0  0  0  0  0
    1.7252  -20.9948   22.0398 N   0  0  0  0  0  0  0  0  0  0  0  0
    0.1596  -21.8500   22.7608 C   0  0  0  0  0  0  0  0  0  0  0  0
   -0.0544  -23.0702   21.9482 C   0  0  0  0  0  0  0  0  0  0  0  0
    1.5509  -23.3041   20.5899 S   0  0  0  0  0  0  0  0  0  0  0  0
    2.5135  -21.6532   21.0103 C   0  0  0  0  0  0  0  0  0  0  0  0
    3.8477  -21.0362   21.0329 N   0  0  0  0  0  0  0  0  0  0  0  0
    5.0143  -14.3793   21.3181 N   0  0  0  0  0  0  0  0  0  0  0  0
    4.6901  -12.5662   21.0726 C   0  0  0  0  0  0  0  0  0  0  0  0
    5.9607  -11.8304   20.3174 C   0  0  0  0  0  0  0  0  0  0  0  0
    6.3696  -10.3829   20.6014 C   0  0  0  0  0  0  0  0  0  0  0  0
    5.6402   -9.2090   20.5957 C   0  0  0  0  0  0  0  0  0  0  0  0
    6.5516   -8.1804   20.7655 N   0  0  0  0  0  0  0  0  0  0  0  0
    6.3539   -6.8054   20.8534 C   0  0  0  0  0  0  0  0  0  0  0  0
    7.3978   -6.0015   21.1019 C   0  0  0  0  0  0  0  0  0  0  0  0
    8.7136   -6.6908   21.2190 C   0  0  0  0  0  0  0  0  0  0  0  0
    8.9233   -7.9665   21.0997 N   0  0  0  0  0  0  0  0  0  0  0  0
    7.8173   -8.7494   20.8828 C   0  0  0  0  0  0  0  0  0  0  0  0
    7.7217  -10.0609   20.7517 N   0  0  0  0  0  0  0  0  0  0  0  0
    6.0229  -18.3458   22.1686 H   0  0  0  0  0  0  0  0  0  0  0  0
    5.1676  -17.9829   20.9145 H   0  0  0  0  0  0  0  0  0  0  0  0
    1.8371  -19.2098   21.2343 H   0  0  0  0  0  0  0  0  0  0  0  0
   -0.5453  -21.3218   23.3602 H   0  0  0  0  0  0  0  0  0  0  0  0
   -0.8782  -23.7625   21.8766 H   0  0  0  0  0  0  0  0  0  0  0  0
    5.4061  -14.8699   20.5273 H   0  0  0  0  0  0  0  0  0  0  0  0
    3.9813  -12.6728   20.2352 H   0  0  0  0  0  0  0  0  0  0  0  0
    4.0170  -12.0473   21.7903 H   0  0  0  0  0  0  0  0  0  0  0  0
    6.8478  -12.4523   20.4847 H   0  0  0  0  0  0  0  0  0  0  0  0
    5.7603  -11.8940   19.2390 H   0  0  0  0  0  0  0  0  0  0  0  0
    4.5866   -9.0123   20.4620 H   0  0  0  0  0  0  0  0  0  0  0  0
    5.3392   -6.4417   20.7527 H   0  0  0  0  0  0  0  0  0  0  0  0
    7.3340   -4.9308   21.2265 H   0  0  0  0  0  0  0  0  0  0  0  0
    9.5731   -6.0254   21.4096 H   0  0  0  0  0  0  0  0  0  0  0  0
  1  2  2  0
  2  3  1  0
  3  4  1  0
  4  5  2  0
  5  6  1  0
  6  7  1  0
  7  8  2  0
  8  9  1  0
  9 10  1  0
 10 11  2  0
  2 12  1  0
 12 13  1  0
 13 14  1  0
 14 15  1  0
 15 16  2  0
 16 17  1  0
 17 18  1  0
 18 19  2  0
 19 20  1  0
 20 21  2  0
 21 22  1  0
 22 23  2  0
 11  4  1  0
 23 15  1  0
 10  6  1  0
 22 17  1  0
  3 24  1  0
  3 25  1  0
  5 26  1  0
  7 27  1  0
  8 28  1  0
 12 29  1  0
 13 30  1  0
 13 31  1  0
 14 32  1  0
 14 33  1  0
 16 34  1  0
 18 35  1  0
 19 36  1  0
 20 37  1  0
M  END
>  <Energy>  (497) 
964.63164499881452

>  <compound_id>  (497) 
53099

>  <target_id>  (497) 
1

>  <reference_id>  (497) 
107

>  <inspiration_ids>  (497) 
[107, 8]

>  <energy_score>  (497) 
855.5613624907483

>  <distance_score>  (497) 
14.214799541993122

>  <path>  (497) 
/opt/xchem-fragalysis-2/maxwin/BulkDock/SCRATCH/511024/C53099-P107/C53099-P107.minimised.mol

>  <scratch_subdir>  (497) 
/opt/xchem-fragalysis-2/maxwin/BulkDock/SCRATCH/511024/C53099-P107

>  <fragmenstein_runtime>  (497) 
21.506653785705566

>  <fragmenstein_outcome>  (497) 
too moved

>  <fragmenstein_mode>  (497) 
expansion

>  <fragmenstein_error>  (497) 


$$$$
C53099-P8
     RDKit          3D

 37 40  0  0  0  0  0  0  0  0999 V2000
    0.8636  -12.2797   26.3572 O   0  0  0  0  0  0  0  0  0  0  0  0
    1.4700  -13.2789   26.0764 C   0  0  0  0  0  0  0  0  0  0  0  0
    0.8620  -14.8009   27.3078 C   0  0  0  0  0  0  0  0  0  0  0  0
   -1.1719  -15.3461   27.9188 C   0  0  0  0  0  0  0  0  0  0  0  0
   -2.0970  -16.7396   27.3527 C   0  0  0  0  0  0  0  0  0  0  0  0
   -3.6447  -17.0411   27.8010 N   0  0  0  0  0  0  0  0  0  0  0  0
   -5.1576  -18.1277   27.9008 C   0  0  0  0  0  0  0  0  0  0  0  0
   -6.0669  -17.7764   28.9689 C   0  0  0  0  0  0  0  0  0  0  0  0
   -5.3475  -16.2966   30.1304 S   0  0  0  0  0  0  0  0  0  0  0  0
   -3.6090  -16.0655   28.8364 C   0  0  0  0  0  0  0  0  0  0  0  0
   -2.4465  -14.9699   28.8260 N   0  0  0  0  0  0  0  0  0  0  0  0
    2.6397  -13.2611   24.5639 N   0  0  0  0  0  0  0  0  0  0  0  0
    2.9372  -12.0918   23.3909 C   0  0  0  0  0  0  0  0  0  0  0  0
    3.8418  -11.1967   22.1291 C   0  0  0  0  0  0  0  0  0  0  0  0
    4.7782   -9.9445   22.1934 C   0  0  0  0  0  0  0  0  0  0  0  0
    4.4202   -8.6041   22.1337 C   0  0  0  0  0  0  0  0  0  0  0  0
    5.5621   -7.8907   21.8090 N   0  0  0  0  0  0  0  0  0  0  0  0
    5.7372   -6.5304   21.5604 C   0  0  0  0  0  0  0  0  0  0  0  0
    6.9578   -6.0596   21.2678 C   0  0  0  0  0  0  0  0  0  0  0  0
    8.0333   -7.0884   21.2475 C   0  0  0  0  0  0  0  0  0  0  0  0
    7.8876   -8.3636   21.4440 N   0  0  0  0  0  0  0  0  0  0  0  0
    6.6152   -8.7977   21.7323 C   0  0  0  0  0  0  0  0  0  0  0  0
    6.1567  -10.0247   21.9529 N   0  0  0  0  0  0  0  0  0  0  0  0
    1.3788  -15.9179   27.4297 H   0  0  0  0  0  0  0  0  0  0  0  0
    1.8257  -15.0428   27.9648 H   0  0  0  0  0  0  0  0  0  0  0  0
   -1.7479  -17.5935   26.7745 H   0  0  0  0  0  0  0  0  0  0  0  0
   -5.4154  -18.9903   27.2980 H   0  0  0  0  0  0  0  0  0  0  0  0
   -6.9924  -18.2313   29.2552 H   0  0  0  0  0  0  0  0  0  0  0  0
    3.1389  -14.1404   24.5217 H   0  0  0  0  0  0  0  0  0  0  0  0
    1.9730  -11.9084   22.9492 H   0  0  0  0  0  0  0  0  0  0  0  0
    3.2452  -12.9443   22.8158 H   0  0  0  0  0  0  0  0  0  0  0  0
    2.9848  -10.7644   21.5786 H   0  0  0  0  0  0  0  0  0  0  0  0
    4.2139  -11.8956   21.3649 H   0  0  0  0  0  0  0  0  0  0  0  0
    3.4588   -8.1145   22.1882 H   0  0  0  0  0  0  0  0  0  0  0  0
    4.8605   -5.8987   21.6263 H   0  0  0  0  0  0  0  0  0  0  0  0
    7.1858   -5.0213   21.0829 H   0  0  0  0  0  0  0  0  0  0  0  0
    9.0433   -6.6978   21.0400 H   0  0  0  0  0  0  0  0  0  0  0  0
  1  2  2  0
  2  3  1  0
  3  4  1  0
  4  5  2  0
  5  6  1  0
  6  7  1  0
  7  8  2  0
  8  9  1  0
  9 10  1  0
 10 11  2  0
  2 12  1  0
 12 13  1  0
 13 14  1  0
 14 15  1  0
 15 16  2  0
 16 17  1  0
 17 18  1  0
 18 19  2  0
 19 20  1  0
 20 21  2  0
 21 22  1  0
 22 23  2  0
 11  4  1  0
 23 15  1  0
 10  6  1  0
 22 17  1  0
  3 24  1  0
  3 25  1  0
  5 26  1  0
  7 27  1  0
  8 28  1  0
 12 29  1  0
 13 30  1  0
 13 31  1  0
 14 32  1  0
 14 33  1  0
 16 34  1  0
 18 35  1  0
 19 36  1  0
 20 37  1  0
M  END
>  <Energy>  (498) 
862.30690278940904

>  <compound_id>  (498) 
53099

>  <target_id>  (498) 
1

>  <reference_id>  (498) 
8

>  <inspiration_ids>  (498) 
[107, 8]

>  <energy_score>  (498) 
753.2366202813405

>  <distance_score>  (498) 
12.729997468097297

>  <path>  (498) 
/opt/xchem-fragalysis-2/maxwin/BulkDock/SCRATCH/511024/C53099-P8/C53099-P8.minimised.mol

>  <scratch_subdir>  (498) 
/opt/xchem-fragalysis-2/maxwin/BulkDock/SCRATCH/511024/C53099-P8

>  <fragmenstein_runtime>  (498) 
20.26370120048523

>  <fragmenstein_outcome>  (498) 
too moved

>  <fragmenstein_mode>  (498) 
expansion

>  <fragmenstein_error>  (498) 


$$$$
C53100-P107
     RDKit          3D

 36 39  0  0  0  0  0  0  0  0999 V2000
    3.4834  -12.7817   21.8456 O   0  0  0  0  0  0  0  0  0  0  0  0
    3.3544  -12.0633   22.8446 C   0  0  0  0  0  0  0  0  0  0  0  0
    2.2019  -12.7541   24.3514 C   0  0  0  0  0  0  0  0  0  0  0  0
    1.1361  -13.2046   26.1331 C   0  0  0  0  0  0  0  0  0  0  0  0
   -0.3299  -14.2035   27.1704 N   0  0  0  0  0  0  0  0  0  0  0  0
   -1.8139  -14.8733   26.6328 C   0  0  0  0  0  0  0  0  0  0  0  0
   -2.2908  -14.7680   25.5322 O   0  0  0  0  0  0  0  0  0  0  0  0
   -2.3946  -15.7611   27.7395 C   0  0  0  0  0  0  0  0  0  0  0  0
   -1.9404  -17.1498   27.2919 C   0  0  0  0  0  0  0  0  0  0  0  0
   -2.7584  -18.1356   27.2316 N   0  0  0  0  0  0  0  0  0  0  0  0
   -3.8896  -17.6490   27.7331 C   0  0  0  0  0  0  0  0  0  0  0  0
   -5.3443  -18.7237   28.4478 S   0  0  0  0  0  0  0  0  0  0  0  0
   -5.1442  -17.7919   29.9109 C   0  0  0  0  0  0  0  0  0  0  0  0
   -4.2159  -16.8253   29.7597 C   0  0  0  0  0  0  0  0  0  0  0  0
   -3.6746  -16.5562   28.4374 N   0  0  0  0  0  0  0  0  0  0  0  0
    4.2932  -10.5447   22.3372 C   0  0  0  0  0  0  0  0  0  0  0  0
    3.9524   -9.1737   22.1637 C   0  0  0  0  0  0  0  0  0  0  0  0
    5.0297   -8.3347   21.9794 N   0  0  0  0  0  0  0  0  0  0  0  0
    5.9961   -9.1145   21.5852 C   0  0  0  0  0  0  0  0  0  0  0  0
    7.2332   -8.7471   21.1269 N   0  0  0  0  0  0  0  0  0  0  0  0
    7.8243   -9.6101   20.3648 C   0  0  0  0  0  0  0  0  0  0  0  0
    7.2846  -10.9342   19.9747 C   0  0  0  0  0  0  0  0  0  0  0  0
    6.1547  -11.3043   20.5999 C   0  0  0  0  0  0  0  0  0  0  0  0
    5.5073  -10.4323   21.4926 N   0  0  0  0  0  0  0  0  0  0  0  0
    1.5981  -11.9926   23.9193 H   0  0  0  0  0  0  0  0  0  0  0  0
    2.5117  -13.6745   23.8930 H   0  0  0  0  0  0  0  0  0  0  0  0
    1.0051  -12.1694   26.3691 H   0  0  0  0  0  0  0  0  0  0  0  0
    0.7664  -13.8095   25.3607 H   0  0  0  0  0  0  0  0  0  0  0  0
   -0.2361  -14.3827   28.1515 H   0  0  0  0  0  0  0  0  0  0  0  0
   -0.9405  -17.5271   27.0945 H   0  0  0  0  0  0  0  0  0  0  0  0
   -5.4890  -18.1841   30.8607 H   0  0  0  0  0  0  0  0  0  0  0  0
   -3.5825  -16.5373   30.5659 H   0  0  0  0  0  0  0  0  0  0  0  0
    2.9807   -8.7012   22.2343 H   0  0  0  0  0  0  0  0  0  0  0  0
    8.8272   -9.3808   19.9729 H   0  0  0  0  0  0  0  0  0  0  0  0
    7.8210  -11.5456   19.2630 H   0  0  0  0  0  0  0  0  0  0  0  0
    5.6855  -12.2625   20.4111 H   0  0  0  0  0  0  0  0  0  0  0  0
  1  2  2  0
  2  3  1  0
  3  4  1  0
  4  5  1  0
  5  6  1  0
  6  7  2  0
  6  8  1  0
  8  9  2  0
  9 10  1  0
 10 11  2  0
 11 12  1  0
 12 13  1  0
 13 14  2  0
 14 15  1  0
  2 16  1  0
 16 17  2  0
 17 18  1  0
 18 19  2  0
 19 20  1  0
 20 21  2  0
 21 22  1  0
 22 23  2  0
 23 24  1  0
 15  8  1  0
 24 16  1  0
 15 11  1  0
 24 19  1  0
  3 25  1  0
  3 26  1  0
  4 27  1  0
  4 28  1  0
  5 29  1  0
  9 30  1  0
 13 31  1  0
 14 32  1  0
 17 33  1  0
 21 34  1  0
 22 35  1  0
 23 36  1  0
M  END
>  <Energy>  (499) 
650.43508865919114

>  <compound_id>  (499) 
53100

>  <target_id>  (499) 
1

>  <reference_id>  (499) 
107

>  <inspiration_ids>  (499) 
[107, 8]

>  <energy_score>  (499) 
602.1075592750816

>  <distance_score>  (499) 
12.471841028694536

>  <path>  (499) 
/opt/xchem-fragalysis-2/maxwin/BulkDock/SCRATCH/511024/C53100-P107/C53100-P107.minimised.mol

>  <scratch_subdir>  (499) 
/opt/xchem-fragalysis-2/maxwin/BulkDock/SCRATCH/511024/C53100-P107

>  <fragmenstein_runtime>  (499) 
17.723779916763306

>  <fragmenstein_outcome>  (499) 
too moved

>  <fragmenstein_mode>  (499) 
expansion

>  <fragmenstein_error>  (499) 


$$$$
C53100-P8
     RDKit          3D

 36 39  0  0  0  0  0  0  0  0999 V2000
    3.3670  -13.6514   24.4759 O   0  0  0  0  0  0  0  0  0  0  0  0
    2.5143  -13.1412   23.7275 C   0  0  0  0  0  0  0  0  0  0  0  0
    0.6140  -14.1200   23.9385 C   0  0  0  0  0  0  0  0  0  0  0  0
   -1.2582  -14.8810   24.6335 C   0  0  0  0  0  0  0  0  0  0  0  0
   -2.7624  -16.0659   25.2735 N   0  0  0  0  0  0  0  0  0  0  0  0
   -3.0265  -17.0946   26.9119 C   0  0  0  0  0  0  0  0  0  0  0  0
   -2.1071  -17.1008   27.6386 O   0  0  0  0  0  0  0  0  0  0  0  0
   -4.6216  -18.0617   27.7896 C   0  0  0  0  0  0  0  0  0  0  0  0
   -5.4578  -17.9377   29.0607 C   0  0  0  0  0  0  0  0  0  0  0  0
   -7.0447  -18.2914   29.0434 N   0  0  0  0  0  0  0  0  0  0  0  0
   -7.3952  -19.1304   28.0623 C   0  0  0  0  0  0  0  0  0  0  0  0
   -9.1842  -20.6799   27.6731 S   0  0  0  0  0  0  0  0  0  0  0  0
   -7.1830  -21.4345   27.1370 C   0  0  0  0  0  0  0  0  0  0  0  0
   -6.0142  -20.6365   26.8916 C   0  0  0  0  0  0  0  0  0  0  0  0
   -5.9284  -19.2769   27.3803 N   0  0  0  0  0  0  0  0  0  0  0  0
    3.6310  -12.1738   22.4649 C   0  0  0  0  0  0  0  0  0  0  0  0
    4.0785  -10.6131   22.3926 C   0  0  0  0  0  0  0  0  0  0  0  0
    5.2991  -10.1731   21.9812 N   0  0  0  0  0  0  0  0  0  0  0  0
    5.7975  -11.1113   21.2530 C   0  0  0  0  0  0  0  0  0  0  0  0
    6.9873  -11.0069   20.5856 N   0  0  0  0  0  0  0  0  0  0  0  0
    7.0809  -11.6958   19.5031 C   0  0  0  0  0  0  0  0  0  0  0  0
    6.0244  -12.5748   18.9905 C   0  0  0  0  0  0  0  0  0  0  0  0
    4.9926  -12.8332   19.8146 C   0  0  0  0  0  0  0  0  0  0  0  0
    4.8384  -12.2679   21.1222 N   0  0  0  0  0  0  0  0  0  0  0  0
    1.2785  -14.8162   23.4235 H   0  0  0  0  0  0  0  0  0  0  0  0
   -0.0479  -13.8373   23.0857 H   0  0  0  0  0  0  0  0  0  0  0  0
   -1.5458  -15.1046   23.6426 H   0  0  0  0  0  0  0  0  0  0  0  0
   -1.6617  -14.0170   25.2077 H   0  0  0  0  0  0  0  0  0  0  0  0
   -3.6219  -16.0529   24.7674 H   0  0  0  0  0  0  0  0  0  0  0  0
   -5.1691  -17.3259   29.9106 H   0  0  0  0  0  0  0  0  0  0  0  0
   -7.2067  -22.5027   26.9656 H   0  0  0  0  0  0  0  0  0  0  0  0
   -5.0763  -21.0634   26.5556 H   0  0  0  0  0  0  0  0  0  0  0  0
    3.4251   -9.7983   22.6066 H   0  0  0  0  0  0  0  0  0  0  0  0
    8.0003  -11.6449   18.8970 H   0  0  0  0  0  0  0  0  0  0  0  0
    6.0986  -12.9597   17.9829 H   0  0  0  0  0  0  0  0  0  0  0  0
    4.1844  -13.3774   19.3776 H   0  0  0  0  0  0  0  0  0  0  0  0
  1  2  2  0
  2  3  1  0
  3  4  1  0
  4  5  1  0
  5  6  1  0
  6  7  2  0
  6  8  1  0
  8  9  2  0
  9 10  1  0
 10 11  2  0
 11 12  1  0
 12 13  1  0
 13 14  2  0
 14 15  1  0
  2 16  1  0
 16 17  2  0
 17 18  1  0
 18 19  2  0
 19 20  1  0
 20 21  2  0
 21 22  1  0
 22 23  2  0
 23 24  1  0
 15  8  1  0
 24 16  1  0
 15 11  1  0
 24 19  1  0
  3 25  1  0
  3 26  1  0
  4 27  1  0
  4 28  1  0
  5 29  1  0
  9 30  1  0
 13 31  1  0
 14 32  1  0
 17 33  1  0
 21 34  1  0
 22 35  1  0
 23 36  1  0
M  END
>  <Energy>  (500) 
1215.4769002100734

>  <compound_id>  (500) 
53100

>  <target_id>  (500) 
1

>  <reference_id>  (500) 
8

>  <inspiration_ids>  (500) 
[107, 8]

>  <energy_score>  (500) 
1167.1493708259636

>  <distance_score>  (500) 
12.116723192025546

>  <path>  (500) 
/opt/xchem-fragalysis-2/maxwin/BulkDock/SCRATCH/511024/C53100-P8/C53100-P8.minimised.mol

>  <scratch_subdir>  (500) 
/opt/xchem-fragalysis-2/maxwin/BulkDock/SCRATCH/511024/C53100-P8

>  <fragmenstein_runtime>  (500) 
17.208479166030884

>  <fragmenstein_outcome>  (500) 
too moved

>  <fragmenstein_mode>  (500) 
expansion

>  <fragmenstein_error>  (500) 


$$$$
C53101-P107
     RDKit          3D

 33 36  0  0  0  0  0  0  0  0999 V2000
   -4.6479   -8.6319   23.9294 O   0  0  0  0  0  0  0  0  0  0  0  0
   -3.8337   -8.6028   24.7753 C   0  0  0  0  0  0  0  0  0  0  0  0
   -2.5123   -7.7680   24.8443 N   0  0  0  0  0  0  0  0  0  0  0  0
   -1.9739   -6.7184   23.9214 C   0  0  0  0  0  0  0  0  0  0  0  0
   -0.4782   -6.5814   23.5835 C   0  0  0  0  0  0  0  0  0  0  0  0
    0.3661   -7.3016   22.7206 C   0  0  0  0  0  0  0  0  0  0  0  0
    1.6046   -6.6970   22.5104 N   0  0  0  0  0  0  0  0  0  0  0  0
    1.4961   -5.5812   23.1640 C   0  0  0  0  0  0  0  0  0  0  0  0
    2.5188   -4.1869   23.3697 S   0  0  0  0  0  0  0  0  0  0  0  0
    1.2385   -3.4669   24.3680 C   0  0  0  0  0  0  0  0  0  0  0  0
    0.1541   -4.2543   24.4982 C   0  0  0  0  0  0  0  0  0  0  0  0
    0.2982   -5.4474   23.8197 N   0  0  0  0  0  0  0  0  0  0  0  0
   -3.7828   -9.3616   26.1158 N   0  0  0  0  0  0  0  0  0  0  0  0
   -4.6611  -10.3230   26.6646 C   0  0  0  0  0  0  0  0  0  0  0  0
   -4.3219  -10.9981   27.9867 C   0  0  0  0  0  0  0  0  0  0  0  0
   -4.9843  -11.9068   28.6434 N   0  0  0  0  0  0  0  0  0  0  0  0
   -6.1556  -12.3254   28.0878 C   0  0  0  0  0  0  0  0  0  0  0  0
   -7.0003  -13.2483   28.5125 N   0  0  0  0  0  0  0  0  0  0  0  0
   -7.9958  -13.3088   27.5762 C   0  0  0  0  0  0  0  0  0  0  0  0
   -7.7587  -12.4133   26.5579 C   0  0  0  0  0  0  0  0  0  0  0  0
   -6.5774  -11.7775   26.8768 N   0  0  0  0  0  0  0  0  0  0  0  0
   -5.8367  -10.7900   26.1828 C   0  0  0  0  0  0  0  0  0  0  0  0
   -2.0775   -7.9064   25.7377 H   0  0  0  0  0  0  0  0  0  0  0  0
   -2.5149   -6.8511   22.9766 H   0  0  0  0  0  0  0  0  0  0  0  0
   -2.3301   -5.7722   24.3437 H   0  0  0  0  0  0  0  0  0  0  0  0
    0.1266   -8.2245   22.2007 H   0  0  0  0  0  0  0  0  0  0  0  0
    1.3564   -2.4833   24.8035 H   0  0  0  0  0  0  0  0  0  0  0  0
   -0.7468   -4.0269   25.0457 H   0  0  0  0  0  0  0  0  0  0  0  0
   -2.9089   -9.1736   26.5717 H   0  0  0  0  0  0  0  0  0  0  0  0
   -3.3804  -10.6457   28.4405 H   0  0  0  0  0  0  0  0  0  0  0  0
   -8.8284  -13.9916   27.6834 H   0  0  0  0  0  0  0  0  0  0  0  0
   -8.3028  -12.1772   25.6552 H   0  0  0  0  0  0  0  0  0  0  0  0
   -6.2545  -10.4503   25.2417 H   0  0  0  0  0  0  0  0  0  0  0  0
  1  2  2  0
  2  3  1  0
  3  4  1  0
  4  5  1  0
  5  6  2  0
  6  7  1  0
  7  8  2  0
  8  9  1  0
  9 10  1  0
 10 11  2  0
 11 12  1  0
  2 13  1  0
 13 14  1  0
 14 15  1  0
 15 16  2  0
 16 17  1  0
 17 18  2  0
 18 19  1  0
 19 20  2  0
 20 21  1  0
 21 22  1  0
 12  5  1  0
 22 14  2  0
 12  8  1  0
 21 17  1  0
  3 23  1  0
  4 24  1  0
  4 25  1  0
  6 26  1  0
 10 27  1  0
 11 28  1  0
 13 29  1  0
 15 30  1  0
 19 31  1  0
 20 32  1  0
 22 33  1  0
M  END
>  <Energy>  (501) 
3.178801629496486

>  <compound_id>  (501) 
53101

>  <target_id>  (501) 
1

>  <reference_id>  (501) 
107

>  <inspiration_ids>  (501) 
[107, 8]

>  <energy_score>  (501) 
-33.109901459405705

>  <distance_score>  (501) 
15.529443883973336

>  <path>  (501) 
/opt/xchem-fragalysis-2/maxwin/BulkDock/SCRATCH/511024/C53101-P107/C53101-P107.minimised.mol

>  <scratch_subdir>  (501) 
/opt/xchem-fragalysis-2/maxwin/BulkDock/SCRATCH/511024/C53101-P107

>  <fragmenstein_runtime>  (501) 
17.75084376335144

>  <fragmenstein_outcome>  (501) 
too moved

>  <fragmenstein_mode>  (501) 
expansion

>  <fragmenstein_error>  (501) 


$$$$
C53101-P8
     RDKit          3D

 33 36  0  0  0  0  0  0  0  0999 V2000
    0.6774  -10.7597   30.4939 O   0  0  0  0  0  0  0  0  0  0  0  0
    1.5021  -11.4797   30.0667 C   0  0  0  0  0  0  0  0  0  0  0  0
    2.9415  -11.1367   29.5610 N   0  0  0  0  0  0  0  0  0  0  0  0
    3.6982   -9.8378   29.5725 C   0  0  0  0  0  0  0  0  0  0  0  0
    4.7227   -9.4396   28.4919 C   0  0  0  0  0  0  0  0  0  0  0  0
    5.9071  -10.0217   28.0166 C   0  0  0  0  0  0  0  0  0  0  0  0
    6.6028   -9.2181   27.1157 N   0  0  0  0  0  0  0  0  0  0  0  0
    5.8952   -8.1276   27.0835 C   0  0  0  0  0  0  0  0  0  0  0  0
    6.0403   -6.5989   26.2616 S   0  0  0  0  0  0  0  0  0  0  0  0
    4.5590   -6.0771   27.0909 C   0  0  0  0  0  0  0  0  0  0  0  0
    4.0356   -7.0201   27.8970 C   0  0  0  0  0  0  0  0  0  0  0  0
    4.7833   -8.1803   27.8864 N   0  0  0  0  0  0  0  0  0  0  0  0
    1.4771  -13.0170   29.9076 N   0  0  0  0  0  0  0  0  0  0  0  0
    0.4581  -13.9585   30.1918 C   0  0  0  0  0  0  0  0  0  0  0  0
    0.5658  -15.3971   29.7030 C   0  0  0  0  0  0  0  0  0  0  0  0
   -0.3151  -16.3563   29.7756 N   0  0  0  0  0  0  0  0  0  0  0  0
   -1.4976  -16.0565   30.3848 C   0  0  0  0  0  0  0  0  0  0  0  0
   -2.5668  -16.8114   30.5611 N   0  0  0  0  0  0  0  0  0  0  0  0
   -3.4639  -16.0462   31.2588 C   0  0  0  0  0  0  0  0  0  0  0  0
   -2.9445  -14.7939   31.4982 C   0  0  0  0  0  0  0  0  0  0  0  0
   -1.6878  -14.7903   30.9307 N   0  0  0  0  0  0  0  0  0  0  0  0
   -0.7196  -13.7653   30.8339 C   0  0  0  0  0  0  0  0  0  0  0  0
    3.4273  -11.9882   29.3369 H   0  0  0  0  0  0  0  0  0  0  0  0
    4.2293   -9.8357   30.5321 H   0  0  0  0  0  0  0  0  0  0  0  0
    2.9297   -9.0607   29.6461 H   0  0  0  0  0  0  0  0  0  0  0  0
    6.3058  -10.9929   28.2880 H   0  0  0  0  0  0  0  0  0  0  0  0
    4.1502   -5.0867   26.9355 H   0  0  0  0  0  0  0  0  0  0  0  0
    3.1438   -6.9319   28.4979 H   0  0  0  0  0  0  0  0  0  0  0  0
    2.3116  -13.3167   29.4310 H   0  0  0  0  0  0  0  0  0  0  0  0
    1.5260  -15.6337   29.2129 H   0  0  0  0  0  0  0  0  0  0  0  0
   -4.4314  -16.4383   31.5478 H   0  0  0  0  0  0  0  0  0  0  0  0
   -3.3453  -13.9274   32.0028 H   0  0  0  0  0  0  0  0  0  0  0  0
   -0.9977  -12.8074   31.2571 H   0  0  0  0  0  0  0  0  0  0  0  0
  1  2  2  0
  2  3  1  0
  3  4  1  0
  4  5  1  0
  5  6  2  0
  6  7  1  0
  7  8  2  0
  8  9  1  0
  9 10  1  0
 10 11  2  0
 11 12  1  0
  2 13  1  0
 13 14  1  0
 14 15  1  0
 15 16  2  0
 16 17  1  0
 17 18  2  0
 18 19  1  0
 19 20  2  0
 20 21  1  0
 21 22  1  0
 12  5  1  0
 22 14  2  0
 12  8  1  0
 21 17  1  0
  3 23  1  0
  4 24  1  0
  4 25  1  0
  6 26  1  0
 10 27  1  0
 11 28  1  0
 13 29  1  0
 15 30  1  0
 19 31  1  0
 20 32  1  0
 22 33  1  0
M  END
>  <Energy>  (502) 
2.849322073355812

>  <compound_id>  (502) 
53101

>  <target_id>  (502) 
1

>  <reference_id>  (502) 
8

>  <inspiration_ids>  (502) 
[107, 8]

>  <energy_score>  (502) 
-33.4393810155473

>  <distance_score>  (502) 
15.69667019067283

>  <path>  (502) 
/opt/xchem-fragalysis-2/maxwin/BulkDock/SCRATCH/511024/C53101-P8/C53101-P8.minimised.mol

>  <scratch_subdir>  (502) 
/opt/xchem-fragalysis-2/maxwin/BulkDock/SCRATCH/511024/C53101-P8

>  <fragmenstein_runtime>  (502) 
20.452050924301147

>  <fragmenstein_outcome>  (502) 
too moved

>  <fragmenstein_mode>  (502) 
expansion

>  <fragmenstein_error>  (502) 


$$$$
C53102-P107
     RDKit          3D

 35 39  0  0  0  0  0  0  0  0999 V2000
    4.6150   -8.7564   15.8838 C   0  0  0  0  0  0  0  0  0  0  0  0
    5.6511   -9.1883   14.9690 C   0  0  0  0  0  0  0  0  0  0  0  0
    6.0243  -10.4802   14.9563 C   0  0  0  0  0  0  0  0  0  0  0  0
    5.3516  -11.3888   15.7656 N   0  0  0  0  0  0  0  0  0  0  0  0
    5.4648  -12.7590   15.8563 C   0  0  0  0  0  0  0  0  0  0  0  0
    4.4275  -13.2075   16.6748 C   0  0  0  0  0  0  0  0  0  0  0  0
    4.1035  -14.6719   17.0627 C   0  0  0  0  0  0  0  0  0  0  0  0
    2.6416  -15.2377   17.3120 C   0  0  0  0  0  0  0  0  0  0  0  0
    1.5508  -14.7529   16.7086 N   0  0  0  0  0  0  0  0  0  0  0  0
    0.5083  -15.6028   17.1057 O   0  0  0  0  0  0  0  0  0  0  0  0
    0.9928  -16.6127   17.9519 C   0  0  0  0  0  0  0  0  0  0  0  0
    0.0653  -17.6180   18.5489 C   0  0  0  0  0  0  0  0  0  0  0  0
   -1.4217  -17.6067   18.2278 C   0  0  0  0  0  0  0  0  0  0  0  0
   -2.3351  -18.4817   18.5508 N   0  0  0  0  0  0  0  0  0  0  0  0
   -1.9167  -19.5454   19.2958 C   0  0  0  0  0  0  0  0  0  0  0  0
   -2.5877  -20.6136   19.6995 N   0  0  0  0  0  0  0  0  0  0  0  0
   -1.7484  -21.2912   20.5539 C   0  0  0  0  0  0  0  0  0  0  0  0
   -0.5365  -20.6449   20.6511 C   0  0  0  0  0  0  0  0  0  0  0  0
   -0.6157  -19.5667   19.7949 N   0  0  0  0  0  0  0  0  0  0  0  0
    0.3615  -18.6352   19.3918 C   0  0  0  0  0  0  0  0  0  0  0  0
    2.3232  -16.4258   18.0560 N   0  0  0  0  0  0  0  0  0  0  0  0
    3.7791  -12.1001   17.1856 N   0  0  0  0  0  0  0  0  0  0  0  0
    4.3135  -11.0312   16.6108 C   0  0  0  0  0  0  0  0  0  0  0  0
    3.9747   -9.6430   16.6683 C   0  0  0  0  0  0  0  0  0  0  0  0
    4.3484   -7.7048   15.9013 H   0  0  0  0  0  0  0  0  0  0  0  0
    6.1103   -8.4539   14.3197 H   0  0  0  0  0  0  0  0  0  0  0  0
    6.8019  -10.8642   14.3105 H   0  0  0  0  0  0  0  0  0  0  0  0
    6.2196  -13.2949   15.2989 H   0  0  0  0  0  0  0  0  0  0  0  0
    4.4932  -15.2986   16.2470 H   0  0  0  0  0  0  0  0  0  0  0  0
    4.7121  -14.9203   17.9349 H   0  0  0  0  0  0  0  0  0  0  0  0
   -1.7524  -16.7433   17.6256 H   0  0  0  0  0  0  0  0  0  0  0  0
   -2.0654  -22.1960   21.0565 H   0  0  0  0  0  0  0  0  0  0  0  0
    0.3595  -20.8577   21.2178 H   0  0  0  0  0  0  0  0  0  0  0  0
    1.3566  -18.8348   19.7546 H   0  0  0  0  0  0  0  0  0  0  0  0
    3.1651   -9.3322   17.3183 H   0  0  0  0  0  0  0  0  0  0  0  0
  1  2  1  0
  2  3  2  0
  3  4  1  0
  4  5  1  0
  5  6  2  0
  6  7  1  0
  7  8  1  0
  8  9  2  0
  9 10  1  0
 10 11  1  0
 11 12  1  0
 12 13  1  0
 13 14  2  0
 14 15  1  0
 15 16  2  0
 16 17  1  0
 17 18  2  0
 18 19  1  0
 19 20  1  0
 11 21  2  0
  6 22  1  0
 22 23  2  0
 23 24  1  0
 24  1  2  0
 23  4  1  0
 21  8  1  0
 20 12  2  0
 19 15  1  0
  1 25  1  0
  2 26  1  0
  3 27  1  0
  5 28  1  0
  7 29  1  0
  7 30  1  0
 13 31  1  0
 17 32  1  0
 18 33  1  0
 20 34  1  0
 24 35  1  0
M  END
>  <Energy>  (503) 
96.114523268036478

>  <compound_id>  (503) 
53102

>  <target_id>  (503) 
1

>  <reference_id>  (503) 
107

>  <inspiration_ids>  (503) 
[107, 8]

>  <energy_score>  (503) 
-12.75089718887034

>  <distance_score>  (503) 
15.147524173791416

>  <path>  (503) 
/opt/xchem-fragalysis-2/maxwin/BulkDock/SCRATCH/511024/C53102-P107/C53102-P107.minimised.mol

>  <scratch_subdir>  (503) 
/opt/xchem-fragalysis-2/maxwin/BulkDock/SCRATCH/511024/C53102-P107

>  <fragmenstein_runtime>  (503) 
29.470094203948975

>  <fragmenstein_outcome>  (503) 
too moved

>  <fragmenstein_mode>  (503) 
expansion

>  <fragmenstein_error>  (503) 


$$$$
C53102-P8
     RDKit          3D

 35 39  0  0  0  0  0  0  0  0999 V2000
    4.8378   -8.5462   15.8017 C   0  0  0  0  0  0  0  0  0  0  0  0
    5.5045   -9.0333   14.6108 C   0  0  0  0  0  0  0  0  0  0  0  0
    5.7018  -10.3547   14.4636 C   0  0  0  0  0  0  0  0  0  0  0  0
    5.1968  -11.2296   15.4202 N   0  0  0  0  0  0  0  0  0  0  0  0
    5.1768  -12.6069   15.4418 C   0  0  0  0  0  0  0  0  0  0  0  0
    4.3974  -12.9947   16.5284 C   0  0  0  0  0  0  0  0  0  0  0  0
    4.1174  -14.4311   17.0370 C   0  0  0  0  0  0  0  0  0  0  0  0
    2.6652  -15.0452   17.2104 C   0  0  0  0  0  0  0  0  0  0  0  0
    1.5824  -14.5743   16.5832 N   0  0  0  0  0  0  0  0  0  0  0  0
    0.5400  -15.4316   16.9669 O   0  0  0  0  0  0  0  0  0  0  0  0
    1.0157  -16.4229   17.8403 C   0  0  0  0  0  0  0  0  0  0  0  0
    0.0797  -17.4034   18.4662 C   0  0  0  0  0  0  0  0  0  0  0  0
   -1.4184  -17.3433   18.2086 C   0  0  0  0  0  0  0  0  0  0  0  0
   -2.3471  -18.1822   18.5799 N   0  0  0  0  0  0  0  0  0  0  0  0
   -1.9307  -19.2627   19.3007 C   0  0  0  0  0  0  0  0  0  0  0  0
   -2.6020  -20.3382   19.6813 N   0  0  0  0  0  0  0  0  0  0  0  0
   -1.7454  -21.0583   20.4828 C   0  0  0  0  0  0  0  0  0  0  0  0
   -0.5248  -20.4275   20.5704 C   0  0  0  0  0  0  0  0  0  0  0  0
   -0.6114  -19.3290   19.7422 N   0  0  0  0  0  0  0  0  0  0  0  0
    0.3776  -18.4273   19.2996 C   0  0  0  0  0  0  0  0  0  0  0  0
    2.3427  -16.2235   17.9665 N   0  0  0  0  0  0  0  0  0  0  0  0
    4.0493  -11.8507   17.2324 N   0  0  0  0  0  0  0  0  0  0  0  0
    4.5092  -10.8116   16.5494 C   0  0  0  0  0  0  0  0  0  0  0  0
    4.3723   -9.3996   16.7331 C   0  0  0  0  0  0  0  0  0  0  0  0
    4.6967   -7.4772   15.9165 H   0  0  0  0  0  0  0  0  0  0  0  0
    5.8296   -8.3333   13.8519 H   0  0  0  0  0  0  0  0  0  0  0  0
    6.2022  -10.7832   13.6037 H   0  0  0  0  0  0  0  0  0  0  0  0
    5.6802  -13.1841   14.6792 H   0  0  0  0  0  0  0  0  0  0  0  0
    4.6345  -14.5329   17.9928 H   0  0  0  0  0  0  0  0  0  0  0  0
    4.6269  -15.1194   16.3478 H   0  0  0  0  0  0  0  0  0  0  0  0
   -1.7439  -16.4716   17.6159 H   0  0  0  0  0  0  0  0  0  0  0  0
   -2.0588  -21.9782   20.9598 H   0  0  0  0  0  0  0  0  0  0  0  0
    0.3856  -20.6733   21.0995 H   0  0  0  0  0  0  0  0  0  0  0  0
    1.3829  -18.6559   19.6137 H   0  0  0  0  0  0  0  0  0  0  0  0
    3.8394   -9.0327   17.5998 H   0  0  0  0  0  0  0  0  0  0  0  0
  1  2  1  0
  2  3  2  0
  3  4  1  0
  4  5  1  0
  5  6  2  0
  6  7  1  0
  7  8  1  0
  8  9  2  0
  9 10  1  0
 10 11  1  0
 11 12  1  0
 12 13  1  0
 13 14  2  0
 14 15  1  0
 15 16  2  0
 16 17  1  0
 17 18  2  0
 18 19  1  0
 19 20  1  0
 11 21  2  0
  6 22  1  0
 22 23  2  0
 23 24  1  0
 24  1  2  0
 23  4  1  0
 21  8  1  0
 20 12  2  0
 19 15  1  0
  1 25  1  0
  2 26  1  0
  3 27  1  0
  5 28  1  0
  7 29  1  0
  7 30  1  0
 13 31  1  0
 17 32  1  0
 18 33  1  0
 20 34  1  0
 24 35  1  0
M  END
>  <Energy>  (504) 
94.892101328575549

>  <compound_id>  (504) 
53102

>  <target_id>  (504) 
1

>  <reference_id>  (504) 
8

>  <inspiration_ids>  (504) 
[107, 8]

>  <energy_score>  (504) 
-13.97331912833073

>  <distance_score>  (504) 
15.166012250214486

>  <path>  (504) 
/opt/xchem-fragalysis-2/maxwin/BulkDock/SCRATCH/511024/C53102-P8/C53102-P8.minimised.mol

>  <scratch_subdir>  (504) 
/opt/xchem-fragalysis-2/maxwin/BulkDock/SCRATCH/511024/C53102-P8

>  <fragmenstein_runtime>  (504) 
23.85384774208069

>  <fragmenstein_outcome>  (504) 
too moved

>  <fragmenstein_mode>  (504) 
expansion

>  <fragmenstein_error>  (504) 


$$$$
C53104-P107
     RDKit          3D

 37 40  0  0  0  0  0  0  0  0999 V2000
    7.0312  -14.6052   28.3300 O   0  0  0  0  0  0  0  0  0  0  0  0
    6.1543  -13.9735   27.8018 C   0  0  0  0  0  0  0  0  0  0  0  0
    6.2236  -12.8386   26.8543 N   0  0  0  0  0  0  0  0  0  0  0  0
    7.4401  -12.1666   26.1574 C   0  0  0  0  0  0  0  0  0  0  0  0
    7.6917  -10.5830   26.2169 C   0  0  0  0  0  0  0  0  0  0  0  0
    8.5333   -9.8115   25.1637 C   0  0  0  0  0  0  0  0  0  0  0  0
    9.2325  -10.1730   24.0202 C   0  0  0  0  0  0  0  0  0  0  0  0
    9.8209   -9.0190   23.5166 N   0  0  0  0  0  0  0  0  0  0  0  0
   10.6813   -8.8341   22.4284 C   0  0  0  0  0  0  0  0  0  0  0  0
   11.1717   -7.6059   22.1786 C   0  0  0  0  0  0  0  0  0  0  0  0
   10.7571   -6.4891   23.0078 C   0  0  0  0  0  0  0  0  0  0  0  0
    9.9208   -6.6725   24.0475 C   0  0  0  0  0  0  0  0  0  0  0  0
    9.4339   -7.9809   24.3524 C   0  0  0  0  0  0  0  0  0  0  0  0
    8.6797   -8.4291   25.3365 N   0  0  0  0  0  0  0  0  0  0  0  0
    4.6563  -14.6160   28.1588 C   0  0  0  0  0  0  0  0  0  0  0  0
    4.5900  -16.1395   28.0037 C   0  0  0  0  0  0  0  0  0  0  0  0
    3.4763  -16.7793   28.4103 C   0  0  0  0  0  0  0  0  0  0  0  0
    2.4114  -16.0419   28.9011 N   0  0  0  0  0  0  0  0  0  0  0  0
    1.1698  -16.4574   29.3271 C   0  0  0  0  0  0  0  0  0  0  0  0
    0.5000  -15.3037   29.6489 C   0  0  0  0  0  0  0  0  0  0  0  0
    1.3056  -14.2017   29.4425 N   0  0  0  0  0  0  0  0  0  0  0  0
    2.4729  -14.6459   28.9910 C   0  0  0  0  0  0  0  0  0  0  0  0
    3.6327  -13.9365   28.6432 N   0  0  0  0  0  0  0  0  0  0  0  0
    5.2854  -12.6045   26.5478 H   0  0  0  0  0  0  0  0  0  0  0  0
    8.3305  -12.6790   26.5380 H   0  0  0  0  0  0  0  0  0  0  0  0
    7.3305  -12.4480   25.1052 H   0  0  0  0  0  0  0  0  0  0  0  0
    6.7269  -10.0761   26.2782 H   0  0  0  0  0  0  0  0  0  0  0  0
    8.1671  -10.3902   27.1888 H   0  0  0  0  0  0  0  0  0  0  0  0
    9.3848  -11.1280   23.5400 H   0  0  0  0  0  0  0  0  0  0  0  0
   10.9533   -9.7116   21.8565 H   0  0  0  0  0  0  0  0  0  0  0  0
   11.8923   -7.4111   21.3973 H   0  0  0  0  0  0  0  0  0  0  0  0
   11.1537   -5.5045   22.7752 H   0  0  0  0  0  0  0  0  0  0  0  0
    9.6166   -5.8520   24.6873 H   0  0  0  0  0  0  0  0  0  0  0  0
    5.4643  -16.6468   27.6152 H   0  0  0  0  0  0  0  0  0  0  0  0
    3.3601  -17.8540   28.3573 H   0  0  0  0  0  0  0  0  0  0  0  0
    0.8847  -17.4987   29.3491 H   0  0  0  0  0  0  0  0  0  0  0  0
   -0.5121  -15.1955   30.0173 H   0  0  0  0  0  0  0  0  0  0  0  0
  1  2  2  0
  2  3  1  0
  3  4  1  0
  4  5  1  0
  5  6  1  0
  6  7  2  0
  7  8  1  0
  8  9  1  0
  9 10  2  0
 10 11  1  0
 11 12  2  0
 12 13  1  0
 13 14  2  0
  2 15  1  0
 15 16  1  0
 16 17  2  0
 17 18  1  0
 18 19  1  0
 19 20  2  0
 20 21  1  0
 21 22  2  0
 22 23  1  0
 14  6  1  0
 23 15  2  0
 13  8  1  0
 22 18  1  0
  3 24  1  0
  4 25  1  0
  4 26  1  0
  5 27  1  0
  5 28  1  0
  7 29  1  0
  9 30  1  0
 10 31  1  0
 11 32  1  0
 12 33  1  0
 16 34  1  0
 17 35  1  0
 19 36  1  0
 20 37  1  0
M  END
>  <Energy>  (505) 
113.58890451005631

>  <compound_id>  (505) 
53104

>  <target_id>  (505) 
1

>  <reference_id>  (505) 
107

>  <inspiration_ids>  (505) 
[107, 8]

>  <energy_score>  (505) 
3.3226039644058005

>  <distance_score>  (505) 
14.83485225621765

>  <path>  (505) 
/opt/xchem-fragalysis-2/maxwin/BulkDock/SCRATCH/511024/C53104-P107/C53104-P107.minimised.mol

>  <scratch_subdir>  (505) 
/opt/xchem-fragalysis-2/maxwin/BulkDock/SCRATCH/511024/C53104-P107

>  <fragmenstein_runtime>  (505) 
26.75587010383606

>  <fragmenstein_outcome>  (505) 
too moved

>  <fragmenstein_mode>  (505) 
expansion

>  <fragmenstein_error>  (505) 


$$$$
C53104-P8
     RDKit          3D

 37 40  0  0  0  0  0  0  0  0999 V2000
    1.2160  -11.9945   23.0235 O   0  0  0  0  0  0  0  0  0  0  0  0
    0.0231  -12.1660   22.8055 C   0  0  0  0  0  0  0  0  0  0  0  0
   -0.9401  -11.0177   21.7682 N   0  0  0  0  0  0  0  0  0  0  0  0
   -0.5256   -9.5409   21.0396 C   0  0  0  0  0  0  0  0  0  0  0  0
    0.8282   -8.7495   20.0766 C   0  0  0  0  0  0  0  0  0  0  0  0
    1.8971   -8.8273   18.5272 C   0  0  0  0  0  0  0  0  0  0  0  0
    2.6636   -9.7207   17.8431 C   0  0  0  0  0  0  0  0  0  0  0  0
    3.8386   -9.3836   17.1445 N   0  0  0  0  0  0  0  0  0  0  0  0
    4.6871  -10.1339   16.3273 C   0  0  0  0  0  0  0  0  0  0  0  0
    5.4693   -9.4789   15.4727 C   0  0  0  0  0  0  0  0  0  0  0  0
    5.4466   -8.0426   15.5709 C   0  0  0  0  0  0  0  0  0  0  0  0
    4.8428   -7.3908   16.5850 C   0  0  0  0  0  0  0  0  0  0  0  0
    3.8337   -8.0896   17.3197 C   0  0  0  0  0  0  0  0  0  0  0  0
    2.6780   -7.8086   18.0124 N   0  0  0  0  0  0  0  0  0  0  0  0
   -0.7030  -13.8337   23.9585 C   0  0  0  0  0  0  0  0  0  0  0  0
   -2.0479  -13.2743   25.3059 C   0  0  0  0  0  0  0  0  0  0  0  0
   -3.3052  -13.7341   25.6339 C   0  0  0  0  0  0  0  0  0  0  0  0
   -3.5645  -15.0175   25.4468 N   0  0  0  0  0  0  0  0  0  0  0  0
   -4.5742  -15.8299   25.8839 C   0  0  0  0  0  0  0  0  0  0  0  0
   -4.2019  -17.0779   25.4630 C   0  0  0  0  0  0  0  0  0  0  0  0
   -3.0251  -16.9899   24.7570 N   0  0  0  0  0  0  0  0  0  0  0  0
   -2.6261  -15.7151   24.7826 C   0  0  0  0  0  0  0  0  0  0  0  0
   -1.3565  -15.1458   23.9163 N   0  0  0  0  0  0  0  0  0  0  0  0
   -1.8669  -11.3858   21.6530 H   0  0  0  0  0  0  0  0  0  0  0  0
   -0.5406   -8.9017   21.9326 H   0  0  0  0  0  0  0  0  0  0  0  0
   -1.4389   -9.3092   20.4739 H   0  0  0  0  0  0  0  0  0  0  0  0
    1.4540   -9.3315   20.7553 H   0  0  0  0  0  0  0  0  0  0  0  0
    0.7145   -7.7013   20.2766 H   0  0  0  0  0  0  0  0  0  0  0  0
    2.7347  -10.7572   17.7243 H   0  0  0  0  0  0  0  0  0  0  0  0
    4.6323  -11.2091   16.3701 H   0  0  0  0  0  0  0  0  0  0  0  0
    6.1423   -9.9735   14.7813 H   0  0  0  0  0  0  0  0  0  0  0  0
    6.0786   -7.5656   14.8532 H   0  0  0  0  0  0  0  0  0  0  0  0
    4.9781   -6.3343   16.7533 H   0  0  0  0  0  0  0  0  0  0  0  0
   -2.1260  -12.2306   25.5793 H   0  0  0  0  0  0  0  0  0  0  0  0
   -4.0222  -13.1629   26.2136 H   0  0  0  0  0  0  0  0  0  0  0  0
   -5.4136  -15.4671   26.4587 H   0  0  0  0  0  0  0  0  0  0  0  0
   -4.7041  -18.0255   25.6081 H   0  0  0  0  0  0  0  0  0  0  0  0
  1  2  2  0
  2  3  1  0
  3  4  1  0
  4  5  1  0
  5  6  1  0
  6  7  2  0
  7  8  1  0
  8  9  1  0
  9 10  2  0
 10 11  1  0
 11 12  2  0
 12 13  1  0
 13 14  2  0
  2 15  1  0
 15 16  1  0
 16 17  2  0
 17 18  1  0
 18 19  1  0
 19 20  2  0
 20 21  1  0
 21 22  2  0
 22 23  1  0
 14  6  1  0
 23 15  2  0
 13  8  1  0
 22 18  1  0
  3 24  1  0
  4 25  1  0
  4 26  1  0
  5 27  1  0
  5 28  1  0
  7 29  1  0
  9 30  1  0
 10 31  1  0
 11 32  1  0
 12 33  1  0
 16 34  1  0
 17 35  1  0
 19 36  1  0
 20 37  1  0
M  END
>  <Energy>  (506) 
642.90131921497482

>  <compound_id>  (506) 
53104

>  <target_id>  (506) 
1

>  <reference_id>  (506) 
8

>  <inspiration_ids>  (506) 
[107, 8]

>  <energy_score>  (506) 
532.6350186693287

>  <distance_score>  (506) 
13.531932315975304

>  <path>  (506) 
/opt/xchem-fragalysis-2/maxwin/BulkDock/SCRATCH/511024/C53104-P8/C53104-P8.minimised.mol

>  <scratch_subdir>  (506) 
/opt/xchem-fragalysis-2/maxwin/BulkDock/SCRATCH/511024/C53104-P8

>  <fragmenstein_runtime>  (506) 
21.558724403381348

>  <fragmenstein_outcome>  (506) 
too moved

>  <fragmenstein_mode>  (506) 
expansion

>  <fragmenstein_error>  (506) 


$$$$
C53102-P107
     RDKit          3D

 35 39  0  0  0  0  0  0  0  0999 V2000
    4.6150   -8.7564   15.8838 C   0  0  0  0  0  0  0  0  0  0  0  0
    5.6511   -9.1883   14.9690 C   0  0  0  0  0  0  0  0  0  0  0  0
    6.0243  -10.4802   14.9563 C   0  0  0  0  0  0  0  0  0  0  0  0
    5.3516  -11.3888   15.7656 N   0  0  0  0  0  0  0  0  0  0  0  0
    5.4648  -12.7590   15.8563 C   0  0  0  0  0  0  0  0  0  0  0  0
    4.4275  -13.2075   16.6748 C   0  0  0  0  0  0  0  0  0  0  0  0
    4.1035  -14.6719   17.0627 C   0  0  0  0  0  0  0  0  0  0  0  0
    2.6416  -15.2377   17.3120 C   0  0  0  0  0  0  0  0  0  0  0  0
    1.5508  -14.7529   16.7086 N   0  0  0  0  0  0  0  0  0  0  0  0
    0.5083  -15.6028   17.1057 O   0  0  0  0  0  0  0  0  0  0  0  0
    0.9928  -16.6127   17.9519 C   0  0  0  0  0  0  0  0  0  0  0  0
    0.0653  -17.6180   18.5489 C   0  0  0  0  0  0  0  0  0  0  0  0
   -1.4217  -17.6067   18.2278 C   0  0  0  0  0  0  0  0  0  0  0  0
   -2.3351  -18.4817   18.5508 N   0  0  0  0  0  0  0  0  0  0  0  0
   -1.9167  -19.5454   19.2958 C   0  0  0  0  0  0  0  0  0  0  0  0
   -2.5877  -20.6136   19.6995 N   0  0  0  0  0  0  0  0  0  0  0  0
   -1.7484  -21.2912   20.5539 C   0  0  0  0  0  0  0  0  0  0  0  0
   -0.5365  -20.6449   20.6511 C   0  0  0  0  0  0  0  0  0  0  0  0
   -0.6157  -19.5667   19.7949 N   0  0  0  0  0  0  0  0  0  0  0  0
    0.3615  -18.6352   19.3918 C   0  0  0  0  0  0  0  0  0  0  0  0
    2.3232  -16.4258   18.0560 N   0  0  0  0  0  0  0  0  0  0  0  0
    3.7791  -12.1001   17.1856 N   0  0  0  0  0  0  0  0  0  0  0  0
    4.3135  -11.0312   16.6108 C   0  0  0  0  0  0  0  0  0  0  0  0
    3.9747   -9.6430   16.6683 C   0  0  0  0  0  0  0  0  0  0  0  0
    4.3484   -7.7048   15.9013 H   0  0  0  0  0  0  0  0  0  0  0  0
    6.1103   -8.4539   14.3197 H   0  0  0  0  0  0  0  0  0  0  0  0
    6.8019  -10.8642   14.3105 H   0  0  0  0  0  0  0  0  0  0  0  0
    6.2196  -13.2949   15.2989 H   0  0  0  0  0  0  0  0  0  0  0  0
    4.4932  -15.2986   16.2470 H   0  0  0  0  0  0  0  0  0  0  0  0
    4.7121  -14.9203   17.9349 H   0  0  0  0  0  0  0  0  0  0  0  0
   -1.7524  -16.7433   17.6256 H   0  0  0  0  0  0  0  0  0  0  0  0
   -2.0654  -22.1960   21.0565 H   0  0  0  0  0  0  0  0  0  0  0  0
    0.3595  -20.8577   21.2178 H   0  0  0  0  0  0  0  0  0  0  0  0
    1.3566  -18.8348   19.7546 H   0  0  0  0  0  0  0  0  0  0  0  0
    3.1651   -9.3322   17.3183 H   0  0  0  0  0  0  0  0  0  0  0  0
  1  2  1  0
  2  3  2  0
  3  4  1  0
  4  5  1  0
  5  6  2  0
  6  7  1  0
  7  8  1  0
  8  9  2  0
  9 10  1  0
 10 11  1  0
 11 12  1  0
 12 13  1  0
 13 14  2  0
 14 15  1  0
 15 16  2  0
 16 17  1  0
 17 18  2  0
 18 19  1  0
 19 20  1  0
 11 21  2  0
  6 22  1  0
 22 23  2  0
 23 24  1  0
 24  1  2  0
 23  4  1  0
 21  8  1  0
 20 12  2  0
 19 15  1  0
  1 25  1  0
  2 26  1  0
  3 27  1  0
  5 28  1  0
  7 29  1  0
  7 30  1  0
 13 31  1  0
 17 32  1  0
 18 33  1  0
 20 34  1  0
 24 35  1  0
M  END
>  <Energy>  (507) 
96.114523268036478

>  <compound_id>  (507) 
53102

>  <target_id>  (507) 
1

>  <reference_id>  (507) 
107

>  <inspiration_ids>  (507) 
[107, 8]

>  <energy_score>  (507) 
-12.75089718887034

>  <distance_score>  (507) 
15.147524173791416

>  <path>  (507) 
/opt/xchem-fragalysis-2/maxwin/BulkDock/SCRATCH/511024/C53102-P107/C53102-P107.minimised.mol

>  <scratch_subdir>  (507) 
/opt/xchem-fragalysis-2/maxwin/BulkDock/SCRATCH/511024/C53102-P107

>  <fragmenstein_runtime>  (507) 
18.084417819976807

>  <fragmenstein_outcome>  (507) 
too moved

>  <fragmenstein_mode>  (507) 
expansion

>  <fragmenstein_error>  (507) 


$$$$
C53102-P8
     RDKit          3D

 35 39  0  0  0  0  0  0  0  0999 V2000
    4.8378   -8.5462   15.8017 C   0  0  0  0  0  0  0  0  0  0  0  0
    5.5045   -9.0333   14.6108 C   0  0  0  0  0  0  0  0  0  0  0  0
    5.7018  -10.3547   14.4636 C   0  0  0  0  0  0  0  0  0  0  0  0
    5.1968  -11.2296   15.4202 N   0  0  0  0  0  0  0  0  0  0  0  0
    5.1768  -12.6069   15.4418 C   0  0  0  0  0  0  0  0  0  0  0  0
    4.3974  -12.9947   16.5284 C   0  0  0  0  0  0  0  0  0  0  0  0
    4.1174  -14.4311   17.0370 C   0  0  0  0  0  0  0  0  0  0  0  0
    2.6652  -15.0452   17.2104 C   0  0  0  0  0  0  0  0  0  0  0  0
    1.5824  -14.5743   16.5832 N   0  0  0  0  0  0  0  0  0  0  0  0
    0.5400  -15.4316   16.9669 O   0  0  0  0  0  0  0  0  0  0  0  0
    1.0157  -16.4229   17.8403 C   0  0  0  0  0  0  0  0  0  0  0  0
    0.0797  -17.4034   18.4662 C   0  0  0  0  0  0  0  0  0  0  0  0
   -1.4184  -17.3433   18.2086 C   0  0  0  0  0  0  0  0  0  0  0  0
   -2.3471  -18.1822   18.5799 N   0  0  0  0  0  0  0  0  0  0  0  0
   -1.9307  -19.2627   19.3007 C   0  0  0  0  0  0  0  0  0  0  0  0
   -2.6020  -20.3382   19.6813 N   0  0  0  0  0  0  0  0  0  0  0  0
   -1.7454  -21.0583   20.4828 C   0  0  0  0  0  0  0  0  0  0  0  0
   -0.5248  -20.4275   20.5704 C   0  0  0  0  0  0  0  0  0  0  0  0
   -0.6114  -19.3290   19.7422 N   0  0  0  0  0  0  0  0  0  0  0  0
    0.3776  -18.4273   19.2996 C   0  0  0  0  0  0  0  0  0  0  0  0
    2.3427  -16.2235   17.9665 N   0  0  0  0  0  0  0  0  0  0  0  0
    4.0493  -11.8507   17.2324 N   0  0  0  0  0  0  0  0  0  0  0  0
    4.5092  -10.8116   16.5494 C   0  0  0  0  0  0  0  0  0  0  0  0
    4.3723   -9.3996   16.7331 C   0  0  0  0  0  0  0  0  0  0  0  0
    4.6967   -7.4772   15.9165 H   0  0  0  0  0  0  0  0  0  0  0  0
    5.8296   -8.3333   13.8519 H   0  0  0  0  0  0  0  0  0  0  0  0
    6.2022  -10.7832   13.6037 H   0  0  0  0  0  0  0  0  0  0  0  0
    5.6802  -13.1841   14.6792 H   0  0  0  0  0  0  0  0  0  0  0  0
    4.6345  -14.5329   17.9928 H   0  0  0  0  0  0  0  0  0  0  0  0
    4.6269  -15.1194   16.3478 H   0  0  0  0  0  0  0  0  0  0  0  0
   -1.7439  -16.4716   17.6159 H   0  0  0  0  0  0  0  0  0  0  0  0
   -2.0588  -21.9782   20.9598 H   0  0  0  0  0  0  0  0  0  0  0  0
    0.3856  -20.6733   21.0995 H   0  0  0  0  0  0  0  0  0  0  0  0
    1.3829  -18.6559   19.6137 H   0  0  0  0  0  0  0  0  0  0  0  0
    3.8394   -9.0327   17.5998 H   0  0  0  0  0  0  0  0  0  0  0  0
  1  2  1  0
  2  3  2  0
  3  4  1  0
  4  5  1  0
  5  6  2  0
  6  7  1  0
  7  8  1  0
  8  9  2  0
  9 10  1  0
 10 11  1  0
 11 12  1  0
 12 13  1  0
 13 14  2  0
 14 15  1  0
 15 16  2  0
 16 17  1  0
 17 18  2  0
 18 19  1  0
 19 20  1  0
 11 21  2  0
  6 22  1  0
 22 23  2  0
 23 24  1  0
 24  1  2  0
 23  4  1  0
 21  8  1  0
 20 12  2  0
 19 15  1  0
  1 25  1  0
  2 26  1  0
  3 27  1  0
  5 28  1  0
  7 29  1  0
  7 30  1  0
 13 31  1  0
 17 32  1  0
 18 33  1  0
 20 34  1  0
 24 35  1  0
M  END
>  <Energy>  (508) 
94.892101328575549

>  <compound_id>  (508) 
53102

>  <target_id>  (508) 
1

>  <reference_id>  (508) 
8

>  <inspiration_ids>  (508) 
[107, 8]

>  <energy_score>  (508) 
-13.97331912833073

>  <distance_score>  (508) 
15.166012250214486

>  <path>  (508) 
/opt/xchem-fragalysis-2/maxwin/BulkDock/SCRATCH/511024/C53102-P8/C53102-P8.minimised.mol

>  <scratch_subdir>  (508) 
/opt/xchem-fragalysis-2/maxwin/BulkDock/SCRATCH/511024/C53102-P8

>  <fragmenstein_runtime>  (508) 
15.338073492050171

>  <fragmenstein_outcome>  (508) 
too moved

>  <fragmenstein_mode>  (508) 
expansion

>  <fragmenstein_error>  (508) 


$$$$
C53105-P107
     RDKit          3D

 37 40  0  0  0  0  0  0  0  0999 V2000
    5.9596  -15.3629   27.2355 O   0  0  0  0  0  0  0  0  0  0  0  0
    5.5733  -15.9451   26.2620 C   0  0  0  0  0  0  0  0  0  0  0  0
    4.8213  -17.2191   26.1367 N   0  0  0  0  0  0  0  0  0  0  0  0
    4.2079  -18.1492   27.2185 C   0  0  0  0  0  0  0  0  0  0  0  0
    2.6737  -18.3689   27.0278 C   0  0  0  0  0  0  0  0  0  0  0  0
    1.6181  -19.3446   27.6400 C   0  0  0  0  0  0  0  0  0  0  0  0
    1.3493  -19.8825   28.8912 C   0  0  0  0  0  0  0  0  0  0  0  0
    0.0638  -20.4322   28.8367 N   0  0  0  0  0  0  0  0  0  0  0  0
   -0.7355  -21.0050   29.8296 C   0  0  0  0  0  0  0  0  0  0  0  0
   -1.9945  -21.3764   29.5417 C   0  0  0  0  0  0  0  0  0  0  0  0
   -2.4131  -21.1469   28.1296 C   0  0  0  0  0  0  0  0  0  0  0  0
   -1.6751  -20.6476   27.1853 N   0  0  0  0  0  0  0  0  0  0  0  0
   -0.4130  -20.2505   27.5427 C   0  0  0  0  0  0  0  0  0  0  0  0
    0.5013  -19.6228   26.8274 N   0  0  0  0  0  0  0  0  0  0  0  0
    5.9007  -15.2598   24.9275 C   0  0  0  0  0  0  0  0  0  0  0  0
    5.5424  -15.5959   23.6214 C   0  0  0  0  0  0  0  0  0  0  0  0
    5.9812  -14.7148   22.6624 N   0  0  0  0  0  0  0  0  0  0  0  0
    6.6344  -13.7943   23.3216 C   0  0  0  0  0  0  0  0  0  0  0  0
    7.3057  -12.6309   22.8203 C   0  0  0  0  0  0  0  0  0  0  0  0
    7.9502  -11.8074   23.6649 C   0  0  0  0  0  0  0  0  0  0  0  0
    7.9674  -12.0853   25.0897 C   0  0  0  0  0  0  0  0  0  0  0  0
    7.3272  -13.1731   25.5694 C   0  0  0  0  0  0  0  0  0  0  0  0
    6.6473  -14.0499   24.7033 N   0  0  0  0  0  0  0  0  0  0  0  0
    4.7335  -17.4577   25.1592 H   0  0  0  0  0  0  0  0  0  0  0  0
    4.7357  -19.1028   27.1238 H   0  0  0  0  0  0  0  0  0  0  0  0
    4.4315  -17.7155   28.1960 H   0  0  0  0  0  0  0  0  0  0  0  0
    2.5938  -18.5614   25.9506 H   0  0  0  0  0  0  0  0  0  0  0  0
    2.2406  -17.3956   27.2683 H   0  0  0  0  0  0  0  0  0  0  0  0
    1.8944  -19.8546   29.8227 H   0  0  0  0  0  0  0  0  0  0  0  0
   -0.3035  -21.0987   30.8171 H   0  0  0  0  0  0  0  0  0  0  0  0
   -2.6916  -21.8001   30.2494 H   0  0  0  0  0  0  0  0  0  0  0  0
   -3.4447  -21.4526   27.8904 H   0  0  0  0  0  0  0  0  0  0  0  0
    4.9588  -16.4530   23.3109 H   0  0  0  0  0  0  0  0  0  0  0  0
    7.2837  -12.4485   21.7520 H   0  0  0  0  0  0  0  0  0  0  0  0
    8.4721  -10.9282   23.3014 H   0  0  0  0  0  0  0  0  0  0  0  0
    8.5019  -11.4094   25.7488 H   0  0  0  0  0  0  0  0  0  0  0  0
    7.3120  -13.4214   26.6237 H   0  0  0  0  0  0  0  0  0  0  0  0
  1  2  2  0
  2  3  1  0
  3  4  1  0
  4  5  1  0
  5  6  1  0
  6  7  2  0
  7  8  1  0
  8  9  1  0
  9 10  2  0
 10 11  1  0
 11 12  2  0
 12 13  1  0
 13 14  2  0
  2 15  1  0
 15 16  2  0
 16 17  1  0
 17 18  2  0
 18 19  1  0
 19 20  2  0
 20 21  1  0
 21 22  2  0
 22 23  1  0
 14  6  1  0
 23 15  1  0
 13  8  1  0
 23 18  1  0
  3 24  1  0
  4 25  1  0
  4 26  1  0
  5 27  1  0
  5 28  1  0
  7 29  1  0
  9 30  1  0
 10 31  1  0
 11 32  1  0
 16 33  1  0
 19 34  1  0
 20 35  1  0
 21 36  1  0
 22 37  1  0
M  END
>  <Energy>  (509) 
50.255805883533952

>  <compound_id>  (509) 
53105

>  <target_id>  (509) 
1

>  <reference_id>  (509) 
107

>  <inspiration_ids>  (509) 
[107, 8]

>  <energy_score>  (509) 
-7.354410309662455

>  <distance_score>  (509) 
14.317389637116278

>  <path>  (509) 
/opt/xchem-fragalysis-2/maxwin/BulkDock/SCRATCH/511024/C53105-P107/C53105-P107.minimised.mol

>  <scratch_subdir>  (509) 
/opt/xchem-fragalysis-2/maxwin/BulkDock/SCRATCH/511024/C53105-P107

>  <fragmenstein_runtime>  (509) 
24.253984212875366

>  <fragmenstein_outcome>  (509) 
too moved

>  <fragmenstein_mode>  (509) 
expansion

>  <fragmenstein_error>  (509) 


$$$$
C53105-P8
     RDKit          3D

 37 40  0  0  0  0  0  0  0  0999 V2000
    1.3266  -13.3645   26.2116 O   0  0  0  0  0  0  0  0  0  0  0  0
    1.1671  -13.5917   25.0261 C   0  0  0  0  0  0  0  0  0  0  0  0
   -0.3712  -14.3007   24.2805 N   0  0  0  0  0  0  0  0  0  0  0  0
   -1.9965  -14.9793   25.1150 C   0  0  0  0  0  0  0  0  0  0  0  0
   -2.6066  -16.6603   26.1285 C   0  0  0  0  0  0  0  0  0  0  0  0
   -1.9740  -18.1524   26.9010 C   0  0  0  0  0  0  0  0  0  0  0  0
   -1.0687  -19.1395   26.5421 C   0  0  0  0  0  0  0  0  0  0  0  0
   -1.6238  -20.3453   26.9659 N   0  0  0  0  0  0  0  0  0  0  0  0
   -1.2826  -21.6471   26.6173 C   0  0  0  0  0  0  0  0  0  0  0  0
   -2.0322  -22.6676   27.0533 C   0  0  0  0  0  0  0  0  0  0  0  0
   -3.1662  -22.2756   27.9264 C   0  0  0  0  0  0  0  0  0  0  0  0
   -3.4899  -21.0731   28.2849 N   0  0  0  0  0  0  0  0  0  0  0  0
   -2.7118  -20.0705   27.7714 C   0  0  0  0  0  0  0  0  0  0  0  0
   -2.8569  -18.7677   27.8271 N   0  0  0  0  0  0  0  0  0  0  0  0
    2.7962  -13.2906   24.0388 C   0  0  0  0  0  0  0  0  0  0  0  0
    4.0654  -13.8535   24.6842 C   0  0  0  0  0  0  0  0  0  0  0  0
    5.3028  -13.3812   24.3010 N   0  0  0  0  0  0  0  0  0  0  0  0
    5.0634  -12.8500   23.1498 C   0  0  0  0  0  0  0  0  0  0  0  0
    5.9869  -12.2263   22.2540 C   0  0  0  0  0  0  0  0  0  0  0  0
    5.9349  -12.5606   20.9592 C   0  0  0  0  0  0  0  0  0  0  0  0
    4.9411  -13.5253   20.5496 C   0  0  0  0  0  0  0  0  0  0  0  0
    3.9203  -13.8495   21.3820 C   0  0  0  0  0  0  0  0  0  0  0  0
    3.7898  -13.3030   22.7168 N   0  0  0  0  0  0  0  0  0  0  0  0
   -0.2836  -14.3084   23.2734 H   0  0  0  0  0  0  0  0  0  0  0  0
   -2.6517  -15.2093   24.2757 H   0  0  0  0  0  0  0  0  0  0  0  0
   -2.2805  -14.1433   25.7424 H   0  0  0  0  0  0  0  0  0  0  0  0
   -2.3031  -16.2698   27.1361 H   0  0  0  0  0  0  0  0  0  0  0  0
   -2.3477  -17.2624   25.2947 H   0  0  0  0  0  0  0  0  0  0  0  0
   -0.2073  -19.1802   25.9012 H   0  0  0  0  0  0  0  0  0  0  0  0
   -0.4228  -21.7788   25.9736 H   0  0  0  0  0  0  0  0  0  0  0  0
   -1.8558  -23.7079   26.8252 H   0  0  0  0  0  0  0  0  0  0  0  0
   -3.7513  -23.1290   28.2955 H   0  0  0  0  0  0  0  0  0  0  0  0
    4.0695  -14.3896   25.6292 H   0  0  0  0  0  0  0  0  0  0  0  0
    6.7576  -11.5794   22.6546 H   0  0  0  0  0  0  0  0  0  0  0  0
    6.6421  -12.1722   20.2347 H   0  0  0  0  0  0  0  0  0  0  0  0
    5.0226  -13.9607   19.5586 H   0  0  0  0  0  0  0  0  0  0  0  0
    3.1994  -14.5557   21.0192 H   0  0  0  0  0  0  0  0  0  0  0  0
  1  2  2  0
  2  3  1  0
  3  4  1  0
  4  5  1  0
  5  6  1  0
  6  7  2  0
  7  8  1  0
  8  9  1  0
  9 10  2  0
 10 11  1  0
 11 12  2  0
 12 13  1  0
 13 14  2  0
  2 15  1  0
 15 16  2  0
 16 17  1  0
 17 18  2  0
 18 19  1  0
 19 20  2  0
 20 21  1  0
 21 22  2  0
 22 23  1  0
 14  6  1  0
 23 15  1  0
 13  8  1  0
 23 18  1  0
  3 24  1  0
  4 25  1  0
  4 26  1  0
  5 27  1  0
  5 28  1  0
  7 29  1  0
  9 30  1  0
 10 31  1  0
 11 32  1  0
 16 33  1  0
 19 34  1  0
 20 35  1  0
 21 36  1  0
 22 37  1  0
M  END
>  <Energy>  (510) 
494.2372881772111

>  <compound_id>  (510) 
53105

>  <target_id>  (510) 
1

>  <reference_id>  (510) 
8

>  <inspiration_ids>  (510) 
[107, 8]

>  <energy_score>  (510) 
436.62707198401324

>  <distance_score>  (510) 
13.863366300878996

>  <path>  (510) 
/opt/xchem-fragalysis-2/maxwin/BulkDock/SCRATCH/511024/C53105-P8/C53105-P8.minimised.mol

>  <scratch_subdir>  (510) 
/opt/xchem-fragalysis-2/maxwin/BulkDock/SCRATCH/511024/C53105-P8

>  <fragmenstein_runtime>  (510) 
20.10348892211914

>  <fragmenstein_outcome>  (510) 
too moved

>  <fragmenstein_mode>  (510) 
expansion

>  <fragmenstein_error>  (510) 


$$$$
C53106-P107
     RDKit          3D

 33 36  0  0  0  0  0  0  0  0999 V2000
    6.9834  -13.5603   27.1514 O   0  0  0  0  0  0  0  0  0  0  0  0
    6.8862  -14.2638   26.1402 C   0  0  0  0  0  0  0  0  0  0  0  0
    7.6708  -13.7765   24.8645 C   0  0  0  0  0  0  0  0  0  0  0  0
    8.1707  -12.4972   24.6837 C   0  0  0  0  0  0  0  0  0  0  0  0
    8.7227  -11.9410   23.4462 C   0  0  0  0  0  0  0  0  0  0  0  0
    8.8120  -12.4220   22.1434 C   0  0  0  0  0  0  0  0  0  0  0  0
    9.2957  -11.5014   21.2490 N   0  0  0  0  0  0  0  0  0  0  0  0
    9.5562  -10.4361   21.9634 C   0  0  0  0  0  0  0  0  0  0  0  0
   10.0837   -9.1792   21.5572 C   0  0  0  0  0  0  0  0  0  0  0  0
   10.3756   -8.2399   22.4724 C   0  0  0  0  0  0  0  0  0  0  0  0
   10.1166   -8.4758   23.8808 C   0  0  0  0  0  0  0  0  0  0  0  0
    9.5697   -9.6450   24.2702 C   0  0  0  0  0  0  0  0  0  0  0  0
    9.2786  -10.6402   23.3237 N   0  0  0  0  0  0  0  0  0  0  0  0
    6.0036  -15.5440   26.1742 C   0  0  0  0  0  0  0  0  0  0  0  0
    5.4270  -16.0818   27.3331 C   0  0  0  0  0  0  0  0  0  0  0  0
    4.6634  -17.1790   26.9835 N   0  0  0  0  0  0  0  0  0  0  0  0
    3.8383  -18.0261   27.7380 C   0  0  0  0  0  0  0  0  0  0  0  0
    3.1233  -18.9903   27.1373 C   0  0  0  0  0  0  0  0  0  0  0  0
    3.3528  -19.0935   25.6706 C   0  0  0  0  0  0  0  0  0  0  0  0
    4.1599  -18.3563   24.9650 N   0  0  0  0  0  0  0  0  0  0  0  0
    4.8311  -17.3455   25.6142 C   0  0  0  0  0  0  0  0  0  0  0  0
    5.6027  -16.3713   25.1184 N   0  0  0  0  0  0  0  0  0  0  0  0
    7.7203  -14.5336   24.0894 H   0  0  0  0  0  0  0  0  0  0  0  0
    8.0626  -11.8145   25.5249 H   0  0  0  0  0  0  0  0  0  0  0  0
    8.5111  -13.4022   21.7947 H   0  0  0  0  0  0  0  0  0  0  0  0
   10.2370   -9.0235   20.5002 H   0  0  0  0  0  0  0  0  0  0  0  0
   10.7947   -7.2839   22.1741 H   0  0  0  0  0  0  0  0  0  0  0  0
   10.3679   -7.6989   24.5954 H   0  0  0  0  0  0  0  0  0  0  0  0
    9.3585   -9.8687   25.3072 H   0  0  0  0  0  0  0  0  0  0  0  0
    5.5059  -15.7529   28.3577 H   0  0  0  0  0  0  0  0  0  0  0  0
    3.8249  -17.8735   28.8065 H   0  0  0  0  0  0  0  0  0  0  0  0
    2.4727  -19.6905   27.6387 H   0  0  0  0  0  0  0  0  0  0  0  0
    2.7895  -19.8941   25.1625 H   0  0  0  0  0  0  0  0  0  0  0  0
  1  2  2  0
  2  3  1  0
  3  4  2  3
  4  5  1  0
  5  6  2  0
  6  7  1  0
  7  8  2  0
  8  9  1  0
  9 10  2  0
 10 11  1  0
 11 12  2  0
 12 13  1  0
  2 14  1  0
 14 15  2  0
 15 16  1  0
 16 17  1  0
 17 18  2  0
 18 19  1  0
 19 20  2  0
 20 21  1  0
 21 22  2  0
 13  5  1  0
 22 14  1  0
 13  8  1  0
 21 16  1  0
  3 23  1  0
  4 24  1  0
  6 25  1  0
  9 26  1  0
 10 27  1  0
 11 28  1  0
 12 29  1  0
 15 30  1  0
 17 31  1  0
 18 32  1  0
 19 33  1  0
M  END
>  <Energy>  (511) 
110.71488700033261

>  <compound_id>  (511) 
53106

>  <target_id>  (511) 
1

>  <reference_id>  (511) 
107

>  <inspiration_ids>  (511) 
[107, 8]

>  <energy_score>  (511) 
-40.44196149945225

>  <distance_score>  (511) 
15.461626794821045

>  <path>  (511) 
/opt/xchem-fragalysis-2/maxwin/BulkDock/SCRATCH/511024/C53106-P107/C53106-P107.minimised.mol

>  <scratch_subdir>  (511) 
/opt/xchem-fragalysis-2/maxwin/BulkDock/SCRATCH/511024/C53106-P107

>  <fragmenstein_runtime>  (511) 
17.078392505645752

>  <fragmenstein_outcome>  (511) 
too moved

>  <fragmenstein_mode>  (511) 
expansion

>  <fragmenstein_error>  (511) 


$$$$
C53106-P8
     RDKit          3D

 33 36  0  0  0  0  0  0  0  0999 V2000
    6.5373  -13.4381   27.3843 O   0  0  0  0  0  0  0  0  0  0  0  0
    6.5561  -14.2480   26.4515 C   0  0  0  0  0  0  0  0  0  0  0  0
    7.4955  -13.8499   25.2297 C   0  0  0  0  0  0  0  0  0  0  0  0
    7.9834  -12.5667   25.0061 C   0  0  0  0  0  0  0  0  0  0  0  0
    8.6360  -12.0679   23.7868 C   0  0  0  0  0  0  0  0  0  0  0  0
    8.9069  -12.6450   22.5496 C   0  0  0  0  0  0  0  0  0  0  0  0
    9.4185  -11.7665   21.6280 N   0  0  0  0  0  0  0  0  0  0  0  0
    9.5224  -10.6256   22.2620 C   0  0  0  0  0  0  0  0  0  0  0  0
   10.0079   -9.3688   21.7965 C   0  0  0  0  0  0  0  0  0  0  0  0
   10.1348   -8.3394   22.6508 C   0  0  0  0  0  0  0  0  0  0  0  0
    9.7306   -8.4749   24.0385 C   0  0  0  0  0  0  0  0  0  0  0  0
    9.2227   -9.6454   24.4753 C   0  0  0  0  0  0  0  0  0  0  0  0
    9.1095  -10.7380   23.6013 N   0  0  0  0  0  0  0  0  0  0  0  0
    5.6556  -15.5362   26.5037 C   0  0  0  0  0  0  0  0  0  0  0  0
    5.5514  -16.6777   25.7104 C   0  0  0  0  0  0  0  0  0  0  0  0
    4.5616  -17.5107   26.2584 N   0  0  0  0  0  0  0  0  0  0  0  0
    4.0183  -18.7213   25.8065 C   0  0  0  0  0  0  0  0  0  0  0  0
    2.9986  -19.2988   26.4651 C   0  0  0  0  0  0  0  0  0  0  0  0
    2.5272  -18.5522   27.6609 C   0  0  0  0  0  0  0  0  0  0  0  0
    3.0100  -17.4285   28.0978 N   0  0  0  0  0  0  0  0  0  0  0  0
    4.0707  -16.8832   27.3947 C   0  0  0  0  0  0  0  0  0  0  0  0
    4.6968  -15.7201   27.5351 N   0  0  0  0  0  0  0  0  0  0  0  0
    7.6309  -14.6484   24.5107 H   0  0  0  0  0  0  0  0  0  0  0  0
    7.7682  -11.8314   25.7809 H   0  0  0  0  0  0  0  0  0  0  0  0
    8.7178  -13.6717   22.2626 H   0  0  0  0  0  0  0  0  0  0  0  0
   10.2773   -9.2853   20.7523 H   0  0  0  0  0  0  0  0  0  0  0  0
   10.5331   -7.3865   22.3171 H   0  0  0  0  0  0  0  0  0  0  0  0
    9.8455   -7.6234   24.7015 H   0  0  0  0  0  0  0  0  0  0  0  0
    8.9099   -9.7948   25.5002 H   0  0  0  0  0  0  0  0  0  0  0  0
    6.0692  -16.9782   24.8122 H   0  0  0  0  0  0  0  0  0  0  0  0
    4.4411  -19.1404   24.9020 H   0  0  0  0  0  0  0  0  0  0  0  0
    2.5172  -20.2188   26.1681 H   0  0  0  0  0  0  0  0  0  0  0  0
    1.6855  -19.0158   28.2015 H   0  0  0  0  0  0  0  0  0  0  0  0
  1  2  2  0
  2  3  1  0
  3  4  2  3
  4  5  1  0
  5  6  2  0
  6  7  1  0
  7  8  2  0
  8  9  1  0
  9 10  2  0
 10 11  1  0
 11 12  2  0
 12 13  1  0
  2 14  1  0
 14 15  2  0
 15 16  1  0
 16 17  1  0
 17 18  2  0
 18 19  1  0
 19 20  2  0
 20 21  1  0
 21 22  2  0
 13  5  1  0
 22 14  1  0
 13  8  1  0
 21 16  1  0
  3 23  1  0
  4 24  1  0
  6 25  1  0
  9 26  1  0
 10 27  1  0
 11 28  1  0
 12 29  1  0
 15 30  1  0
 17 31  1  0
 18 32  1  0
 19 33  1  0
M  END
>  <Energy>  (512) 
123.78462276913723

>  <compound_id>  (512) 
53106

>  <target_id>  (512) 
1

>  <reference_id>  (512) 
8

>  <inspiration_ids>  (512) 
[107, 8]

>  <energy_score>  (512) 
-27.372225730645198

>  <distance_score>  (512) 
15.35233733500523

>  <path>  (512) 
/opt/xchem-fragalysis-2/maxwin/BulkDock/SCRATCH/511024/C53106-P8/C53106-P8.minimised.mol

>  <scratch_subdir>  (512) 
/opt/xchem-fragalysis-2/maxwin/BulkDock/SCRATCH/511024/C53106-P8

>  <fragmenstein_runtime>  (512) 
12.770440340042114

>  <fragmenstein_outcome>  (512) 
too moved

>  <fragmenstein_mode>  (512) 
expansion

>  <fragmenstein_error>  (512) 


$$$$
C19714-P28
     RDKit          3D

 47 48  0  0  0  0  0  0  0  0999 V2000
   -2.8733  -20.6004    9.0696 C   0  0  0  0  0  0  0  0  0  0  0  0
   -3.4366  -21.6714    9.9199 N   0  0  0  0  0  0  0  0  0  0  0  0
   -2.4340  -21.0673   10.9548 C   0  0  0  0  0  0  0  0  0  0  0  0
   -3.0189  -20.0742   12.0493 C   0  0  0  0  0  0  0  0  0  0  0  0
   -3.1066  -18.6542   11.6603 N   0  0  0  0  0  0  0  0  0  0  0  0
   -4.0245  -17.4937   12.2054 C   0  0  0  0  0  0  0  0  0  0  0  0
   -4.8061  -17.4840   13.1188 O   0  0  0  0  0  0  0  0  0  0  0  0
   -3.8670  -16.2051   11.2286 C   0  0  0  0  0  0  0  0  0  0  0  0
   -2.7662  -16.2144   10.1251 C   0  0  0  0  0  0  0  0  0  0  0  0
   -1.2738  -16.3281   10.5076 C   0  0  0  0  0  0  0  0  0  0  0  0
   -0.4573  -15.3513   11.1595 C   0  0  0  0  0  0  0  0  0  0  0  0
    0.8113  -15.7170   11.2454 N   0  0  0  0  0  0  0  0  0  0  0  0
    0.8560  -16.9407   10.7344 N   0  0  0  0  0  0  0  0  0  0  0  0
   -0.3579  -17.3453   10.2466 C   0  0  0  0  0  0  0  0  0  0  0  0
   -3.2825  -23.0928    9.8536 C   0  0  0  0  0  0  0  0  0  0  0  0
   -2.5837  -23.7722    9.1449 O   0  0  0  0  0  0  0  0  0  0  0  0
   -4.1816  -23.7843   10.8795 C   0  0  0  0  0  0  0  0  0  0  0  0
   -4.5903  -25.2162   10.4600 C   0  0  0  0  0  0  0  0  0  0  0  0
   -3.4421  -26.0114   10.1523 O   0  0  0  0  0  0  0  0  0  0  0  0
   -5.3448  -25.9439   11.5582 C   0  0  0  0  0  0  0  0  0  0  0  0
   -6.7687  -25.5049   11.3551 C   0  0  0  0  0  0  0  0  0  0  0  0
   -6.9371  -25.3342    9.9488 O   0  0  0  0  0  0  0  0  0  0  0  0
   -5.6317  -25.2396    9.3371 C   0  0  0  0  0  0  0  0  0  0  0  0
   -3.4932  -20.6540    8.1629 H   0  0  0  0  0  0  0  0  0  0  0  0
   -1.8752  -20.8559    8.6802 H   0  0  0  0  0  0  0  0  0  0  0  0
   -2.9651  -19.5636    9.3729 H   0  0  0  0  0  0  0  0  0  0  0  0
   -2.1593  -21.9421   11.5674 H   0  0  0  0  0  0  0  0  0  0  0  0
   -1.4348  -20.7520   10.6013 H   0  0  0  0  0  0  0  0  0  0  0  0
   -3.9939  -20.4237   12.3899 H   0  0  0  0  0  0  0  0  0  0  0  0
   -2.2631  -20.1066   12.8365 H   0  0  0  0  0  0  0  0  0  0  0  0
   -2.6347  -18.3466   10.8308 H   0  0  0  0  0  0  0  0  0  0  0  0
   -4.8387  -16.0675   10.7345 H   0  0  0  0  0  0  0  0  0  0  0  0
   -3.8144  -15.2988   11.8312 H   0  0  0  0  0  0  0  0  0  0  0  0
   -2.9795  -16.9964    9.3859 H   0  0  0  0  0  0  0  0  0  0  0  0
   -2.9153  -15.2850    9.5769 H   0  0  0  0  0  0  0  0  0  0  0  0
   -0.7269  -14.3769   11.5383 H   0  0  0  0  0  0  0  0  0  0  0  0
    1.7369  -17.4455   10.7865 H   0  0  0  0  0  0  0  0  0  0  0  0
   -0.4525  -18.3027    9.7557 H   0  0  0  0  0  0  0  0  0  0  0  0
   -5.0633  -23.1667   11.0740 H   0  0  0  0  0  0  0  0  0  0  0  0
   -3.5804  -23.8498   11.7935 H   0  0  0  0  0  0  0  0  0  0  0  0
   -2.9016  -25.4980    9.5131 H   0  0  0  0  0  0  0  0  0  0  0  0
   -4.9595  -25.7453   12.5579 H   0  0  0  0  0  0  0  0  0  0  0  0
   -5.2719  -27.0297   11.4086 H   0  0  0  0  0  0  0  0  0  0  0  0
   -7.4943  -26.2338   11.7260 H   0  0  0  0  0  0  0  0  0  0  0  0
   -6.9588  -24.5449   11.8401 H   0  0  0  0  0  0  0  0  0  0  0  0
   -5.6041  -24.3473    8.7045 H   0  0  0  0  0  0  0  0  0  0  0  0
   -5.5059  -26.1126    8.6871 H   0  0  0  0  0  0  0  0  0  0  0  0
  1  2  1  0
  2  3  1  0
  3  4  1  0
  4  5  1  0
  5  6  1  0
  6  7  2  0
  6  8  1  0
  8  9  1  0
  9 10  1  0
 10 11  1  0
 11 12  2  0
 12 13  1  0
 13 14  1  0
  2 15  1  0
 15 16  2  0
 15 17  1  0
 17 18  1  0
 18 19  1  0
 18 20  1  0
 20 21  1  0
 21 22  1  0
 22 23  1  0
 14 10  2  0
 23 18  1  0
  1 24  1  0
  1 25  1  0
  1 26  1  0
  3 27  1  0
  3 28  1  0
  4 29  1  0
  4 30  1  0
  5 31  1  0
  8 32  1  0
  8 33  1  0
  9 34  1  0
  9 35  1  0
 11 36  1  0
 13 37  1  0
 14 38  1  0
 17 39  1  0
 17 40  1  0
 19 41  1  0
 20 42  1  0
 20 43  1  0
 21 44  1  0
 21 45  1  0
 23 46  1  0
 23 47  1  0
M  END
>  <Energy>  (513) 
123.31063984924147

>  <compound_id>  (513) 
19714

>  <target_id>  (513) 
1

>  <reference_id>  (513) 
28

>  <inspiration_ids>  (513) 
[28, 122]

>  <energy_score>  (513) 
74.64587077888393

>  <distance_score>  (513) 
13.433426333739197

>  <path>  (513) 
/opt/xchem-fragalysis-2/maxwin/BulkDock/SCRATCH/511024/C19714-P28/C19714-P28.minimised.mol

>  <scratch_subdir>  (513) 
/opt/xchem-fragalysis-2/maxwin/BulkDock/SCRATCH/511024/C19714-P28

>  <fragmenstein_runtime>  (513) 
25.03737473487854

>  <fragmenstein_outcome>  (513) 
too moved

>  <fragmenstein_mode>  (513) 
expansion

>  <fragmenstein_error>  (513) 


$$$$
C19714-P122
     RDKit          3D

 47 48  0  0  0  0  0  0  0  0999 V2000
    2.0292  -19.4318   10.0524 C   0  0  0  0  0  0  0  0  0  0  0  0
    0.6196  -19.8852   10.2068 N   0  0  0  0  0  0  0  0  0  0  0  0
    0.5348  -18.6086   11.0580 C   0  0  0  0  0  0  0  0  0  0  0  0
    0.0650  -17.3409   10.2880 C   0  0  0  0  0  0  0  0  0  0  0  0
    0.3234  -16.1001   11.0034 N   0  0  0  0  0  0  0  0  0  0  0  0
   -0.4762  -14.9284   11.1672 C   0  0  0  0  0  0  0  0  0  0  0  0
   -1.5890  -14.7020   10.8250 O   0  0  0  0  0  0  0  0  0  0  0  0
    0.3252  -13.6979   11.9684 C   0  0  0  0  0  0  0  0  0  0  0  0
    0.7109  -12.0862   11.5380 C   0  0  0  0  0  0  0  0  0  0  0  0
    2.2679  -11.4032   10.8998 C   0  0  0  0  0  0  0  0  0  0  0  0
    3.3928  -12.0576   10.2411 C   0  0  0  0  0  0  0  0  0  0  0  0
    4.1660  -11.2529    9.5059 N   0  0  0  0  0  0  0  0  0  0  0  0
    3.5148  -10.0878    9.5392 N   0  0  0  0  0  0  0  0  0  0  0  0
    2.4372  -10.0987   10.3852 C   0  0  0  0  0  0  0  0  0  0  0  0
    0.0669  -21.0003   10.9290 C   0  0  0  0  0  0  0  0  0  0  0  0
    0.5940  -21.7940   11.6627 O   0  0  0  0  0  0  0  0  0  0  0  0
   -1.4320  -21.0832   10.6336 C   0  0  0  0  0  0  0  0  0  0  0  0
   -1.9710  -22.5126   10.5103 C   0  0  0  0  0  0  0  0  0  0  0  0
   -1.3870  -23.1401    9.3538 O   0  0  0  0  0  0  0  0  0  0  0  0
   -3.4733  -22.5174   10.3273 C   0  0  0  0  0  0  0  0  0  0  0  0
   -3.8699  -23.9288   10.7070 C   0  0  0  0  0  0  0  0  0  0  0  0
   -2.8456  -24.4472   11.5712 O   0  0  0  0  0  0  0  0  0  0  0  0
   -1.8405  -23.4133   11.7378 C   0  0  0  0  0  0  0  0  0  0  0  0
    2.6450  -19.6044   10.9484 H   0  0  0  0  0  0  0  0  0  0  0  0
    2.4438  -20.1615    9.3411 H   0  0  0  0  0  0  0  0  0  0  0  0
    2.2030  -18.4689    9.5583 H   0  0  0  0  0  0  0  0  0  0  0  0
    1.3423  -18.4182   11.7881 H   0  0  0  0  0  0  0  0  0  0  0  0
   -0.3001  -18.8089   11.7439 H   0  0  0  0  0  0  0  0  0  0  0  0
    0.5654  -17.2407    9.3208 H   0  0  0  0  0  0  0  0  0  0  0  0
   -1.0086  -17.4035   10.0773 H   0  0  0  0  0  0  0  0  0  0  0  0
    1.1730  -15.9761   11.4793 H   0  0  0  0  0  0  0  0  0  0  0  0
    1.1029  -14.2002   12.5014 H   0  0  0  0  0  0  0  0  0  0  0  0
   -0.2700  -13.5304   12.8655 H   0  0  0  0  0  0  0  0  0  0  0  0
   -0.1176  -11.5412   11.1051 H   0  0  0  0  0  0  0  0  0  0  0  0
    0.7270  -11.6277   12.5044 H   0  0  0  0  0  0  0  0  0  0  0  0
    3.6442  -13.1027   10.2020 H   0  0  0  0  0  0  0  0  0  0  0  0
    3.8720   -9.3136    8.9894 H   0  0  0  0  0  0  0  0  0  0  0  0
    1.8134   -9.2207   10.4170 H   0  0  0  0  0  0  0  0  0  0  0  0
   -1.9449  -20.5502   11.4438 H   0  0  0  0  0  0  0  0  0  0  0  0
   -1.6386  -20.5455    9.6991 H   0  0  0  0  0  0  0  0  0  0  0  0
   -1.4906  -24.1017    9.4787 H   0  0  0  0  0  0  0  0  0  0  0  0
   -3.9036  -21.8046   11.0328 H   0  0  0  0  0  0  0  0  0  0  0  0
   -3.8019  -22.2634    9.3152 H   0  0  0  0  0  0  0  0  0  0  0  0
   -4.8389  -23.9905   11.2069 H   0  0  0  0  0  0  0  0  0  0  0  0
   -3.9088  -24.5756    9.8240 H   0  0  0  0  0  0  0  0  0  0  0  0
   -2.0532  -22.8841   12.6722 H   0  0  0  0  0  0  0  0  0  0  0  0
   -0.8702  -23.9118   11.8088 H   0  0  0  0  0  0  0  0  0  0  0  0
  1  2  1  0
  2  3  1  0
  3  4  1  0
  4  5  1  0
  5  6  1  0
  6  7  2  0
  6  8  1  0
  8  9  1  0
  9 10  1  0
 10 11  1  0
 11 12  2  0
 12 13  1  0
 13 14  1  0
  2 15  1  0
 15 16  2  0
 15 17  1  0
 17 18  1  0
 18 19  1  0
 18 20  1  0
 20 21  1  0
 21 22  1  0
 22 23  1  0
 14 10  2  0
 23 18  1  0
  1 24  1  0
  1 25  1  0
  1 26  1  0
  3 27  1  0
  3 28  1  0
  4 29  1  0
  4 30  1  0
  5 31  1  0
  8 32  1  0
  8 33  1  0
  9 34  1  0
  9 35  1  0
 11 36  1  0
 13 37  1  0
 14 38  1  0
 17 39  1  0
 17 40  1  0
 19 41  1  0
 20 42  1  0
 20 43  1  0
 21 44  1  0
 21 45  1  0
 23 46  1  0
 23 47  1  0
M  END
>  <Energy>  (514) 
171.30212006580754

>  <compound_id>  (514) 
19714

>  <target_id>  (514) 
1

>  <reference_id>  (514) 
122

>  <inspiration_ids>  (514) 
[28, 122]

>  <energy_score>  (514) 
122.6373509954517

>  <distance_score>  (514) 
13.675644801557631

>  <path>  (514) 
/opt/xchem-fragalysis-2/maxwin/BulkDock/SCRATCH/511024/C19714-P122/C19714-P122.minimised.mol

>  <scratch_subdir>  (514) 
/opt/xchem-fragalysis-2/maxwin/BulkDock/SCRATCH/511024/C19714-P122

>  <fragmenstein_runtime>  (514) 
19.748775720596313

>  <fragmenstein_outcome>  (514) 
too moved

>  <fragmenstein_mode>  (514) 
expansion

>  <fragmenstein_error>  (514) 


$$$$
C46417-P122
     RDKit          3D

 26 28  0  0  0  0  0  0  0  0999 V2000
   -1.5963  -15.2588   24.0972 C   0  0  0  0  0  0  0  0  0  0  0  0
   -0.7310  -14.3595   24.4081 N   0  0  0  0  0  0  0  0  0  0  0  0
   -1.4506  -13.7861   25.3385 N   0  0  0  0  0  0  0  0  0  0  0  0
   -2.2068  -14.7007   25.9265 C   0  0  0  0  0  0  0  0  0  0  0  0
   -2.4323  -15.7900   25.0399 C   0  0  0  0  0  0  0  0  0  0  0  0
   -2.1926  -17.4479   25.7390 C   0  0  0  0  0  0  0  0  0  0  0  0
   -1.1547  -18.2487   26.4044 C   0  0  0  0  0  0  0  0  0  0  0  0
   -1.6374  -19.4796   26.7407 N   0  0  0  0  0  0  0  0  0  0  0  0
   -2.7150  -19.3236   25.9702 N   0  0  0  0  0  0  0  0  0  0  0  0
   -2.7352  -17.7981   26.9070 C   0  0  0  0  0  0  0  0  0  0  0  0
   -3.9737  -17.1738   27.4393 C   0  0  0  0  0  0  0  0  0  0  0  0
   -5.5449  -18.3614   27.5996 C   0  0  0  0  0  0  0  0  0  0  0  0
   -5.7819  -19.6024   26.5319 C   0  0  0  0  0  0  0  0  0  0  0  0
   -4.4407  -20.1496   25.6359 C   0  0  0  0  0  0  0  0  0  0  0  0
   -1.4061  -15.0947   23.0714 H   0  0  0  0  0  0  0  0  0  0  0  0
   -0.9469  -12.9802   25.6226 H   0  0  0  0  0  0  0  0  0  0  0  0
   -2.1372  -14.8228   27.0088 H   0  0  0  0  0  0  0  0  0  0  0  0
   -0.1950  -18.0200   26.8102 H   0  0  0  0  0  0  0  0  0  0  0  0
   -3.2168  -16.6742   28.0478 H   0  0  0  0  0  0  0  0  0  0  0  0
   -4.3423  -16.5321   28.2523 H   0  0  0  0  0  0  0  0  0  0  0  0
   -6.5059  -17.8670   27.3527 H   0  0  0  0  0  0  0  0  0  0  0  0
   -5.9124  -18.3862   28.6302 H   0  0  0  0  0  0  0  0  0  0  0  0
   -6.2701  -20.4681   26.9762 H   0  0  0  0  0  0  0  0  0  0  0  0
   -6.5287  -19.2887   25.7845 H   0  0  0  0  0  0  0  0  0  0  0  0
   -4.5210  -21.2422   25.6543 H   0  0  0  0  0  0  0  0  0  0  0  0
   -4.4957  -19.9262   24.5609 H   0  0  0  0  0  0  0  0  0  0  0  0
  1  2  2  0
  2  3  1  0
  3  4  1  0
  4  5  2  0
  5  6  1  0
  6  7  1  0
  7  8  2  0
  8  9  1  0
  9 10  1  0
 10 11  1  0
 11 12  1  0
 12 13  1  0
 13 14  1  0
  5  1  1  0
 10  6  2  0
 14  9  1  0
  1 15  1  0
  3 16  1  0
  4 17  1  0
  7 18  1  0
 11 19  1  0
 11 20  1  0
 12 21  1  0
 12 22  1  0
 13 23  1  0
 13 24  1  0
 14 25  1  0
 14 26  1  0
M  END
>  <Energy>  (515) 
530.62255151136776

>  <compound_id>  (515) 
46417

>  <target_id>  (515) 
1

>  <reference_id>  (515) 
122

>  <inspiration_ids>  (515) 
[122, 82]

>  <energy_score>  (515) 
476.9992721646132

>  <distance_score>  (515) 
15.727967875736768

>  <path>  (515) 
/opt/xchem-fragalysis-2/maxwin/BulkDock/SCRATCH/511024/C46417-P122/C46417-P122.minimised.mol

>  <scratch_subdir>  (515) 
/opt/xchem-fragalysis-2/maxwin/BulkDock/SCRATCH/511024/C46417-P122

>  <fragmenstein_runtime>  (515) 
9.58845591545105

>  <fragmenstein_outcome>  (515) 
too moved

>  <fragmenstein_mode>  (515) 
expansion

>  <fragmenstein_error>  (515) 


$$$$
C46417-P82
     RDKit          3D

 26 28  0  0  0  0  0  0  0  0999 V2000
    2.4230  -15.9955   17.6704 C   0  0  0  0  0  0  0  0  0  0  0  0
    2.7124  -14.8542   17.0286 N   0  0  0  0  0  0  0  0  0  0  0  0
    1.5067  -14.4216   16.6282 N   0  0  0  0  0  0  0  0  0  0  0  0
    0.4769  -15.2585   16.9834 C   0  0  0  0  0  0  0  0  0  0  0  0
    1.0245  -16.3061   17.6959 C   0  0  0  0  0  0  0  0  0  0  0  0
    0.3866  -17.4853   18.3775 C   0  0  0  0  0  0  0  0  0  0  0  0
    1.1070  -18.6882   18.6078 C   0  0  0  0  0  0  0  0  0  0  0  0
    0.3979  -19.6321   19.2317 N   0  0  0  0  0  0  0  0  0  0  0  0
   -0.7673  -19.0226   19.5000 N   0  0  0  0  0  0  0  0  0  0  0  0
   -0.8887  -17.7859   18.8970 C   0  0  0  0  0  0  0  0  0  0  0  0
   -2.2205  -17.0973   18.9000 C   0  0  0  0  0  0  0  0  0  0  0  0
   -3.3804  -17.8553   19.5905 C   0  0  0  0  0  0  0  0  0  0  0  0
   -3.1846  -19.3649   19.7455 C   0  0  0  0  0  0  0  0  0  0  0  0
   -1.7958  -19.7110   20.2669 C   0  0  0  0  0  0  0  0  0  0  0  0
    3.2363  -16.5563   18.1117 H   0  0  0  0  0  0  0  0  0  0  0  0
    1.4542  -13.5504   16.1115 H   0  0  0  0  0  0  0  0  0  0  0  0
   -0.5444  -15.0242   16.7230 H   0  0  0  0  0  0  0  0  0  0  0  0
    2.1277  -18.9207   18.3348 H   0  0  0  0  0  0  0  0  0  0  0  0
   -2.1219  -16.0996   19.3418 H   0  0  0  0  0  0  0  0  0  0  0  0
   -2.5024  -16.9382   17.8508 H   0  0  0  0  0  0  0  0  0  0  0  0
   -4.3049  -17.6692   19.0289 H   0  0  0  0  0  0  0  0  0  0  0  0
   -3.5630  -17.4023   20.5641 H   0  0  0  0  0  0  0  0  0  0  0  0
   -3.3176  -19.8295   18.7596 H   0  0  0  0  0  0  0  0  0  0  0  0
   -3.9564  -19.7878   20.3972 H   0  0  0  0  0  0  0  0  0  0  0  0
   -1.6186  -20.7887   20.1831 H   0  0  0  0  0  0  0  0  0  0  0  0
   -1.6511  -19.4183   21.3080 H   0  0  0  0  0  0  0  0  0  0  0  0
  1  2  2  0
  2  3  1  0
  3  4  1  0
  4  5  2  0
  5  6  1  0
  6  7  1  0
  7  8  2  0
  8  9  1  0
  9 10  1  0
 10 11  1  0
 11 12  1  0
 12 13  1  0
 13 14  1  0
  5  1  1  0
 10  6  2  0
 14  9  1  0
  1 15  1  0
  3 16  1  0
  4 17  1  0
  7 18  1  0
 11 19  1  0
 11 20  1  0
 12 21  1  0
 12 22  1  0
 13 23  1  0
 13 24  1  0
 14 25  1  0
 14 26  1  0
M  END
>  <Energy>  (516) 
27.672567818075905

>  <compound_id>  (516) 
46417

>  <target_id>  (516) 
1

>  <reference_id>  (516) 
82

>  <inspiration_ids>  (516) 
[122, 82]

>  <energy_score>  (516) 
-25.95071152867979

>  <distance_score>  (516) 
16.846571728052297

>  <path>  (516) 
/opt/xchem-fragalysis-2/maxwin/BulkDock/SCRATCH/511024/C46417-P82/C46417-P82.minimised.mol

>  <scratch_subdir>  (516) 
/opt/xchem-fragalysis-2/maxwin/BulkDock/SCRATCH/511024/C46417-P82

>  <fragmenstein_runtime>  (516) 
9.900723934173584

>  <fragmenstein_outcome>  (516) 
too moved

>  <fragmenstein_mode>  (516) 
expansion

>  <fragmenstein_error>  (516) 


$$$$
C19099-P122
     RDKit          3D

 30 31  0  0  0  0  0  0  0  0999 V2000
   -7.0502  -18.8476   20.4814 C   0  0  0  0  0  0  0  0  0  0  0  0
   -6.3567  -19.7908   19.4738 C   0  0  0  0  0  0  0  0  0  0  0  0
   -6.0194  -21.1910   20.1336 C   0  0  0  0  0  0  0  0  0  0  0  0
   -6.9230  -21.8823   21.1803 C   0  0  0  0  0  0  0  0  0  0  0  0
   -8.3157  -21.9229   21.1058 C   0  0  0  0  0  0  0  0  0  0  0  0
   -9.0440  -22.7282   21.9871 C   0  0  0  0  0  0  0  0  0  0  0  0
   -8.3710  -23.5049   22.9129 C   0  0  0  0  0  0  0  0  0  0  0  0
   -6.9963  -23.3896   22.9712 C   0  0  0  0  0  0  0  0  0  0  0  0
   -6.2717  -22.6083   22.1336 N   0  0  0  0  0  0  0  0  0  0  0  0
   -7.3565  -20.0533   18.3184 C   0  0  0  0  0  0  0  0  0  0  0  0
   -7.9508  -21.1105   18.1399 O   0  0  0  0  0  0  0  0  0  0  0  0
   -7.6118  -19.0023   17.4975 O   0  0  0  0  0  0  0  0  0  0  0  0
   -5.1711  -19.0521   18.9147 N   0  0  0  0  0  0  0  0  0  0  0  0
   -3.8255  -19.2377   19.0909 C   0  0  0  0  0  0  0  0  0  0  0  0
   -3.1959  -18.1215   18.5965 C   0  0  0  0  0  0  0  0  0  0  0  0
   -4.2012  -17.4510   17.8931 C   0  0  0  0  0  0  0  0  0  0  0  0
   -5.4086  -17.9595   18.1236 N   0  0  0  0  0  0  0  0  0  0  0  0
   -7.2330  -17.8546   20.0529 H   0  0  0  0  0  0  0  0  0  0  0  0
   -6.4463  -18.6984   21.3789 H   0  0  0  0  0  0  0  0  0  0  0  0
   -8.0306  -19.2194   20.7913 H   0  0  0  0  0  0  0  0  0  0  0  0
   -5.8809  -21.9286   19.3295 H   0  0  0  0  0  0  0  0  0  0  0  0
   -5.0332  -21.1344   20.5982 H   0  0  0  0  0  0  0  0  0  0  0  0
   -8.8627  -21.3808   20.3432 H   0  0  0  0  0  0  0  0  0  0  0  0
  -10.1272  -22.7715   21.9165 H   0  0  0  0  0  0  0  0  0  0  0  0
   -8.9106  -24.1617   23.5811 H   0  0  0  0  0  0  0  0  0  0  0  0
   -6.4123  -23.9445   23.6987 H   0  0  0  0  0  0  0  0  0  0  0  0
   -6.9382  -18.2803   17.6150 H   0  0  0  0  0  0  0  0  0  0  0  0
   -3.4309  -20.0936   19.6182 H   0  0  0  0  0  0  0  0  0  0  0  0
   -2.1436  -17.8964   18.6574 H   0  0  0  0  0  0  0  0  0  0  0  0
   -4.1396  -16.6049   17.2247 H   0  0  0  0  0  0  0  0  0  0  0  0
  1  2  1  0
  2  3  1  0
  3  4  1  0
  4  5  2  0
  5  6  1  0
  6  7  2  0
  7  8  1  0
  8  9  2  0
  2 10  1  0
 10 11  2  0
 10 12  1  0
  2 13  1  0
 13 14  1  0
 14 15  2  0
 15 16  1  0
 16 17  2  0
  9  4  1  0
 17 13  1  0
  1 18  1  0
  1 19  1  0
  1 20  1  0
  3 21  1  0
  3 22  1  0
  5 23  1  0
  6 24  1  0
  7 25  1  0
  8 26  1  0
 12 27  1  0
 14 28  1  0
 15 29  1  0
 16 30  1  0
M  END
>  <Energy>  (517) 
16.449178027893225

>  <compound_id>  (517) 
19099

>  <target_id>  (517) 
1

>  <reference_id>  (517) 
122

>  <inspiration_ids>  (517) 
[122, 82]

>  <energy_score>  (517) 
-31.84096604705809

>  <distance_score>  (517) 
17.20539717185992

>  <path>  (517) 
/opt/xchem-fragalysis-2/maxwin/BulkDock/SCRATCH/511024/C19099-P122/C19099-P122.minimised.mol

>  <scratch_subdir>  (517) 
/opt/xchem-fragalysis-2/maxwin/BulkDock/SCRATCH/511024/C19099-P122

>  <fragmenstein_runtime>  (517) 
20.08569884300232

>  <fragmenstein_outcome>  (517) 
too moved

>  <fragmenstein_mode>  (517) 
expansion

>  <fragmenstein_error>  (517) 


$$$$
C19099-P82
     RDKit          3D

 30 31  0  0  0  0  0  0  0  0999 V2000
   -5.2854   -8.3645   26.7176 C   0  0  0  0  0  0  0  0  0  0  0  0
   -4.0145   -9.2245   26.6129 C   0  0  0  0  0  0  0  0  0  0  0  0
   -3.8433  -10.0653   27.9691 C   0  0  0  0  0  0  0  0  0  0  0  0
   -4.7520  -11.3104   28.2928 C   0  0  0  0  0  0  0  0  0  0  0  0
   -4.2940  -12.2987   29.1813 C   0  0  0  0  0  0  0  0  0  0  0  0
   -5.1151  -13.3813   29.5448 C   0  0  0  0  0  0  0  0  0  0  0  0
   -6.3966  -13.4666   29.0286 C   0  0  0  0  0  0  0  0  0  0  0  0
   -6.7876  -12.4598   28.1631 C   0  0  0  0  0  0  0  0  0  0  0  0
   -6.0071  -11.3972   27.7894 N   0  0  0  0  0  0  0  0  0  0  0  0
   -4.1140  -10.2788   25.5329 C   0  0  0  0  0  0  0  0  0  0  0  0
   -3.4308  -11.2915   25.5270 O   0  0  0  0  0  0  0  0  0  0  0  0
   -4.9301  -10.0176   24.4946 O   0  0  0  0  0  0  0  0  0  0  0  0
   -2.8651   -8.3144   26.2306 N   0  0  0  0  0  0  0  0  0  0  0  0
   -2.7168   -7.6116   25.0364 C   0  0  0  0  0  0  0  0  0  0  0  0
   -1.5258   -6.9213   25.0905 C   0  0  0  0  0  0  0  0  0  0  0  0
   -1.0092   -7.2406   26.3531 C   0  0  0  0  0  0  0  0  0  0  0  0
   -1.7949   -8.0840   27.0422 N   0  0  0  0  0  0  0  0  0  0  0  0
   -5.2046   -7.6502   27.5450 H   0  0  0  0  0  0  0  0  0  0  0  0
   -6.1803   -8.9719   26.8813 H   0  0  0  0  0  0  0  0  0  0  0  0
   -5.4662   -7.7832   25.8060 H   0  0  0  0  0  0  0  0  0  0  0  0
   -2.8099  -10.4318   28.0016 H   0  0  0  0  0  0  0  0  0  0  0  0
   -3.9440   -9.3782   28.8198 H   0  0  0  0  0  0  0  0  0  0  0  0
   -3.2940  -12.2283   29.6014 H   0  0  0  0  0  0  0  0  0  0  0  0
   -4.7416  -14.1392   30.2276 H   0  0  0  0  0  0  0  0  0  0  0  0
   -7.0618  -14.2812   29.2835 H   0  0  0  0  0  0  0  0  0  0  0  0
   -7.7799  -12.4650   27.7191 H   0  0  0  0  0  0  0  0  0  0  0  0
   -4.8401  -10.7971   23.8832 H   0  0  0  0  0  0  0  0  0  0  0  0
   -3.4742   -7.6684   24.2655 H   0  0  0  0  0  0  0  0  0  0  0  0
   -1.1054   -6.2772   24.3314 H   0  0  0  0  0  0  0  0  0  0  0  0
   -0.0888   -6.8983   26.8084 H   0  0  0  0  0  0  0  0  0  0  0  0
  1  2  1  0
  2  3  1  0
  3  4  1  0
  4  5  2  0
  5  6  1  0
  6  7  2  0
  7  8  1  0
  8  9  2  0
  2 10  1  0
 10 11  2  0
 10 12  1  0
  2 13  1  0
 13 14  1  0
 14 15  2  0
 15 16  1  0
 16 17  2  0
  9  4  1  0
 17 13  1  0
  1 18  1  0
  1 19  1  0
  1 20  1  0
  3 21  1  0
  3 22  1  0
  5 23  1  0
  6 24  1  0
  7 25  1  0
  8 26  1  0
 12 27  1  0
 14 28  1  0
 15 29  1  0
 16 30  1  0
M  END
>  <Energy>  (518) 
13.649759971298915

>  <compound_id>  (518) 
19099

>  <target_id>  (518) 
1

>  <reference_id>  (518) 
82

>  <inspiration_ids>  (518) 
[122, 82]

>  <energy_score>  (518) 
-34.64038410365151

>  <distance_score>  (518) 
16.142337802962526

>  <path>  (518) 
/opt/xchem-fragalysis-2/maxwin/BulkDock/SCRATCH/511024/C19099-P82/C19099-P82.minimised.mol

>  <scratch_subdir>  (518) 
/opt/xchem-fragalysis-2/maxwin/BulkDock/SCRATCH/511024/C19099-P82

>  <fragmenstein_runtime>  (518) 
28.098164796829224

>  <fragmenstein_outcome>  (518) 
too moved

>  <fragmenstein_mode>  (518) 
expansion

>  <fragmenstein_error>  (518) 


$$$$
C18745-P122
     RDKit          3D

 30 31  0  0  0  0  0  0  0  0999 V2000
   -2.8029  -21.6209   21.8595 C   0  0  0  0  0  0  0  0  0  0  0  0
   -3.6984  -20.3617   21.7508 C   0  0  0  0  0  0  0  0  0  0  0  0
   -4.1406  -19.8934   23.2082 C   0  0  0  0  0  0  0  0  0  0  0  0
   -4.8668  -20.7256   24.2564 C   0  0  0  0  0  0  0  0  0  0  0  0
   -4.9973  -20.1975   25.5585 C   0  0  0  0  0  0  0  0  0  0  0  0
   -5.5543  -20.9652   26.5745 C   0  0  0  0  0  0  0  0  0  0  0  0
   -5.9934  -22.2167   26.3875 N   0  0  0  0  0  0  0  0  0  0  0  0
   -5.8858  -22.6890   25.1242 C   0  0  0  0  0  0  0  0  0  0  0  0
   -5.3683  -21.9959   24.0436 C   0  0  0  0  0  0  0  0  0  0  0  0
   -4.9756  -20.6591   20.9692 C   0  0  0  0  0  0  0  0  0  0  0  0
   -5.9814  -19.9621   20.9458 O   0  0  0  0  0  0  0  0  0  0  0  0
   -4.9577  -21.7953   20.2438 O   0  0  0  0  0  0  0  0  0  0  0  0
   -2.9253  -19.2868   21.0156 N   0  0  0  0  0  0  0  0  0  0  0  0
   -3.4082  -18.2435   20.2534 C   0  0  0  0  0  0  0  0  0  0  0  0
   -2.3264  -17.6231   19.6747 C   0  0  0  0  0  0  0  0  0  0  0  0
   -1.2172  -18.3085   20.1795 C   0  0  0  0  0  0  0  0  0  0  0  0
   -1.5654  -19.2933   21.0116 N   0  0  0  0  0  0  0  0  0  0  0  0
   -3.3455  -22.4979   22.2206 H   0  0  0  0  0  0  0  0  0  0  0  0
   -1.9620  -21.4542   22.5429 H   0  0  0  0  0  0  0  0  0  0  0  0
   -2.3846  -21.8981   20.8836 H   0  0  0  0  0  0  0  0  0  0  0  0
   -3.1972  -19.6545   23.7145 H   0  0  0  0  0  0  0  0  0  0  0  0
   -4.7145  -18.9623   23.1028 H   0  0  0  0  0  0  0  0  0  0  0  0
   -4.6344  -19.2003   25.7915 H   0  0  0  0  0  0  0  0  0  0  0  0
   -5.6385  -20.5801   27.5850 H   0  0  0  0  0  0  0  0  0  0  0  0
   -6.2633  -23.6853   24.9457 H   0  0  0  0  0  0  0  0  0  0  0  0
   -5.3559  -22.4874   23.0795 H   0  0  0  0  0  0  0  0  0  0  0  0
   -5.8220  -21.8106   19.7792 H   0  0  0  0  0  0  0  0  0  0  0  0
   -4.4672  -18.0451   20.1640 H   0  0  0  0  0  0  0  0  0  0  0  0
   -2.3564  -16.7877   18.9988 H   0  0  0  0  0  0  0  0  0  0  0  0
   -0.1727  -18.1372   19.9938 H   0  0  0  0  0  0  0  0  0  0  0  0
  1  2  1  0
  2  3  1  0
  3  4  1  0
  4  5  2  0
  5  6  1  0
  6  7  2  0
  7  8  1  0
  8  9  2  0
  2 10  1  0
 10 11  2  0
 10 12  1  0
  2 13  1  0
 13 14  1  0
 14 15  2  0
 15 16  1  0
 16 17  2  0
  9  4  1  0
 17 13  1  0
  1 18  1  0
  1 19  1  0
  1 20  1  0
  3 21  1  0
  3 22  1  0
  5 23  1  0
  6 24  1  0
  8 25  1  0
  9 26  1  0
 12 27  1  0
 14 28  1  0
 15 29  1  0
 16 30  1  0
M  END
>  <Energy>  (519) 
32.14713270221376

>  <compound_id>  (519) 
18745

>  <target_id>  (519) 
1

>  <reference_id>  (519) 
122

>  <inspiration_ids>  (519) 
[122, 82]

>  <energy_score>  (519) 
-31.88268454262925

>  <distance_score>  (519) 
16.463683121320184

>  <path>  (519) 
/opt/xchem-fragalysis-2/maxwin/BulkDock/SCRATCH/511024/C18745-P122/C18745-P122.minimised.mol

>  <scratch_subdir>  (519) 
/opt/xchem-fragalysis-2/maxwin/BulkDock/SCRATCH/511024/C18745-P122

>  <fragmenstein_runtime>  (519) 
20.682294368743896

>  <fragmenstein_outcome>  (519) 
too moved

>  <fragmenstein_mode>  (519) 
expansion

>  <fragmenstein_error>  (519) 


$$$$
C18745-P82
     RDKit          3D

 30 31  0  0  0  0  0  0  0  0999 V2000
   -3.8831  -15.9928   25.7689 C   0  0  0  0  0  0  0  0  0  0  0  0
   -4.7802  -14.7863   26.1145 C   0  0  0  0  0  0  0  0  0  0  0  0
   -5.6705  -15.0810   27.4003 C   0  0  0  0  0  0  0  0  0  0  0  0
   -6.1717  -16.5070   27.6166 C   0  0  0  0  0  0  0  0  0  0  0  0
   -5.5068  -17.3560   28.5068 C   0  0  0  0  0  0  0  0  0  0  0  0
   -5.9027  -18.6779   28.5956 C   0  0  0  0  0  0  0  0  0  0  0  0
   -6.9124  -19.2056   27.8745 N   0  0  0  0  0  0  0  0  0  0  0  0
   -7.5721  -18.3735   27.0493 C   0  0  0  0  0  0  0  0  0  0  0  0
   -7.2557  -17.0310   26.9040 C   0  0  0  0  0  0  0  0  0  0  0  0
   -5.7662  -14.6136   24.9403 C   0  0  0  0  0  0  0  0  0  0  0  0
   -6.2363  -15.5642   24.3195 O   0  0  0  0  0  0  0  0  0  0  0  0
   -6.1955  -13.3669   24.6587 O   0  0  0  0  0  0  0  0  0  0  0  0
   -3.8851  -13.5940   26.3130 N   0  0  0  0  0  0  0  0  0  0  0  0
   -2.6870  -13.5431   26.9907 C   0  0  0  0  0  0  0  0  0  0  0  0
   -2.3204  -12.2232   27.0766 C   0  0  0  0  0  0  0  0  0  0  0  0
   -3.3316  -11.5343   26.3883 C   0  0  0  0  0  0  0  0  0  0  0  0
   -4.2580  -12.3568   25.8910 N   0  0  0  0  0  0  0  0  0  0  0  0
   -4.4533  -16.8684   25.4398 H   0  0  0  0  0  0  0  0  0  0  0  0
   -3.2833  -16.3083   26.6284 H   0  0  0  0  0  0  0  0  0  0  0  0
   -3.2020  -15.7371   24.9517 H   0  0  0  0  0  0  0  0  0  0  0  0
   -6.5419  -14.4110   27.4027 H   0  0  0  0  0  0  0  0  0  0  0  0
   -5.0979  -14.7927   28.2929 H   0  0  0  0  0  0  0  0  0  0  0  0
   -4.6684  -17.0111   29.1040 H   0  0  0  0  0  0  0  0  0  0  0  0
   -5.3863  -19.3613   29.2632 H   0  0  0  0  0  0  0  0  0  0  0  0
   -8.3684  -18.8278   26.4664 H   0  0  0  0  0  0  0  0  0  0  0  0
   -7.8144  -16.4263   26.1951 H   0  0  0  0  0  0  0  0  0  0  0  0
   -5.6053  -12.6577   25.0309 H   0  0  0  0  0  0  0  0  0  0  0  0
   -2.2314  -14.4283   27.4100 H   0  0  0  0  0  0  0  0  0  0  0  0
   -1.4581  -11.8322   27.5980 H   0  0  0  0  0  0  0  0  0  0  0  0
   -3.4501  -10.4689   26.2334 H   0  0  0  0  0  0  0  0  0  0  0  0
  1  2  1  0
  2  3  1  0
  3  4  1  0
  4  5  2  0
  5  6  1  0
  6  7  2  0
  7  8  1  0
  8  9  2  0
  2 10  1  0
 10 11  2  0
 10 12  1  0
  2 13  1  0
 13 14  1  0
 14 15  2  0
 15 16  1  0
 16 17  2  0
  9  4  1  0
 17 13  1  0
  1 18  1  0
  1 19  1  0
  1 20  1  0
  3 21  1  0
  3 22  1  0
  5 23  1  0
  6 24  1  0
  8 25  1  0
  9 26  1  0
 12 27  1  0
 14 28  1  0
 15 29  1  0
 16 30  1  0
M  END
>  <Energy>  (520) 
25.575894648178817

>  <compound_id>  (520) 
18745

>  <target_id>  (520) 
1

>  <reference_id>  (520) 
82

>  <inspiration_ids>  (520) 
[122, 82]

>  <energy_score>  (520) 
-38.4539225966646

>  <distance_score>  (520) 
16.050098081216582

>  <path>  (520) 
/opt/xchem-fragalysis-2/maxwin/BulkDock/SCRATCH/511024/C18745-P82/C18745-P82.minimised.mol

>  <scratch_subdir>  (520) 
/opt/xchem-fragalysis-2/maxwin/BulkDock/SCRATCH/511024/C18745-P82

>  <fragmenstein_runtime>  (520) 
18.464527368545532

>  <fragmenstein_outcome>  (520) 
too moved

>  <fragmenstein_mode>  (520) 
expansion

>  <fragmenstein_error>  (520) 


$$$$
C19100-P122
     RDKit          3D

 41 42  0  0  0  0  0  0  0  0999 V2000
    7.8743  -12.1205   27.1711 C   0  0  0  0  0  0  0  0  0  0  0  0
    7.2252  -12.6024   25.8829 C   0  0  0  0  0  0  0  0  0  0  0  0
    8.5300  -12.7951   24.5159 S   0  0  0  0  0  0  0  0  0  0  0  0
    8.9524  -11.1503   23.8483 C   0  0  0  0  0  0  0  0  0  0  0  0
    9.5706  -11.0917   22.5865 C   0  0  0  0  0  0  0  0  0  0  0  0
   10.0595   -9.8749   22.0881 C   0  0  0  0  0  0  0  0  0  0  0  0
    9.9182   -8.7316   22.8582 C   0  0  0  0  0  0  0  0  0  0  0  0
    9.2824   -8.8679   24.0858 C   0  0  0  0  0  0  0  0  0  0  0  0
    8.8074  -10.0420   24.5989 N   0  0  0  0  0  0  0  0  0  0  0  0
    6.4756  -14.0185   26.1661 C   0  0  0  0  0  0  0  0  0  0  0  0
    7.0342  -15.0425   25.8731 O   0  0  0  0  0  0  0  0  0  0  0  0
    5.1543  -13.7876   26.7692 N   0  0  0  0  0  0  0  0  0  0  0  0
    4.1327  -14.6727   27.0909 C   0  0  0  0  0  0  0  0  0  0  0  0
    4.0568  -16.0794   26.9180 C   0  0  0  0  0  0  0  0  0  0  0  0
    2.8121  -16.4699   27.3729 C   0  0  0  0  0  0  0  0  0  0  0  0
    2.1978  -15.3264   27.7964 N   0  0  0  0  0  0  0  0  0  0  0  0
    0.8300  -15.1525   28.3017 C   0  0  0  0  0  0  0  0  0  0  0  0
    0.0819  -16.4836   28.5150 C   0  0  0  0  0  0  0  0  0  0  0  0
    0.0217  -14.3087   27.2988 C   0  0  0  0  0  0  0  0  0  0  0  0
    0.8785  -14.4352   29.6476 C   0  0  0  0  0  0  0  0  0  0  0  0
    0.3199  -13.3885   29.9452 O   0  0  0  0  0  0  0  0  0  0  0  0
    1.5818  -15.0967   30.5957 O   0  0  0  0  0  0  0  0  0  0  0  0
    2.9900  -14.2298   27.6384 N   0  0  0  0  0  0  0  0  0  0  0  0
    8.6109  -12.8424   27.5411 H   0  0  0  0  0  0  0  0  0  0  0  0
    7.1229  -11.9993   27.9590 H   0  0  0  0  0  0  0  0  0  0  0  0
    8.3708  -11.1544   27.0426 H   0  0  0  0  0  0  0  0  0  0  0  0
    6.4921  -11.8826   25.5232 H   0  0  0  0  0  0  0  0  0  0  0  0
    9.7008  -12.0003   22.0045 H   0  0  0  0  0  0  0  0  0  0  0  0
   10.5492   -9.8398   21.1201 H   0  0  0  0  0  0  0  0  0  0  0  0
   10.2817   -7.7674   22.5225 H   0  0  0  0  0  0  0  0  0  0  0  0
    9.1272   -8.0037   24.7274 H   0  0  0  0  0  0  0  0  0  0  0  0
    5.0417  -12.8026   26.9521 H   0  0  0  0  0  0  0  0  0  0  0  0
    4.8221  -16.7206   26.5024 H   0  0  0  0  0  0  0  0  0  0  0  0
    2.3455  -17.4433   27.4126 H   0  0  0  0  0  0  0  0  0  0  0  0
   -0.0655  -17.0176   27.5693 H   0  0  0  0  0  0  0  0  0  0  0  0
   -0.9069  -16.3124   28.9572 H   0  0  0  0  0  0  0  0  0  0  0  0
    0.6245  -17.1518   29.1941 H   0  0  0  0  0  0  0  0  0  0  0  0
    0.0003  -14.7826   26.3106 H   0  0  0  0  0  0  0  0  0  0  0  0
    0.4481  -13.3059   27.1774 H   0  0  0  0  0  0  0  0  0  0  0  0
   -1.0144  -14.1769   27.6321 H   0  0  0  0  0  0  0  0  0  0  0  0
    1.5531  -14.4996   31.3729 H   0  0  0  0  0  0  0  0  0  0  0  0
  1  2  1  0
  2  3  1  0
  3  4  1  0
  4  5  2  0
  5  6  1  0
  6  7  2  0
  7  8  1  0
  8  9  2  0
  2 10  1  0
 10 11  2  0
 10 12  1  0
 12 13  1  0
 13 14  1  0
 14 15  2  0
 15 16  1  0
 16 17  1  0
 17 18  1  0
 17 19  1  0
 17 20  1  0
 20 21  2  0
 20 22  1  0
 16 23  1  0
  9  4  1  0
 23 13  2  0
  1 24  1  0
  1 25  1  0
  1 26  1  0
  2 27  1  0
  5 28  1  0
  6 29  1  0
  7 30  1  0
  8 31  1  0
 12 32  1  0
 14 33  1  0
 15 34  1  0
 18 35  1  0
 18 36  1  0
 18 37  1  0
 19 38  1  0
 19 39  1  0
 19 40  1  0
 22 41  1  0
M  END
>  <Energy>  (521) 
-3.6837372325006745

>  <compound_id>  (521) 
19100

>  <target_id>  (521) 
1

>  <reference_id>  (521) 
122

>  <inspiration_ids>  (521) 
[122, 82]

>  <energy_score>  (521) 
-54.38918525768918

>  <distance_score>  (521) 
16.903814481544142

>  <path>  (521) 
/opt/xchem-fragalysis-2/maxwin/BulkDock/SCRATCH/511024/C19100-P122/C19100-P122.minimised.mol

>  <scratch_subdir>  (521) 
/opt/xchem-fragalysis-2/maxwin/BulkDock/SCRATCH/511024/C19100-P122

>  <fragmenstein_runtime>  (521) 
25.529820442199707

>  <fragmenstein_outcome>  (521) 
too moved

>  <fragmenstein_mode>  (521) 
expansion

>  <fragmenstein_error>  (521) 


$$$$
C19100-P82
     RDKit          3D

 41 42  0  0  0  0  0  0  0  0999 V2000
   -2.3426  -22.7577   23.2226 C   0  0  0  0  0  0  0  0  0  0  0  0
   -2.6720  -21.5243   24.0479 C   0  0  0  0  0  0  0  0  0  0  0  0
   -1.0420  -20.5443   24.3393 S   0  0  0  0  0  0  0  0  0  0  0  0
   -0.8298  -19.3321   22.9956 C   0  0  0  0  0  0  0  0  0  0  0  0
   -0.1862  -19.6853   21.8065 C   0  0  0  0  0  0  0  0  0  0  0  0
    0.0487  -18.7166   20.8320 C   0  0  0  0  0  0  0  0  0  0  0  0
   -0.3408  -17.4163   21.0892 C   0  0  0  0  0  0  0  0  0  0  0  0
   -0.8908  -17.1156   22.3207 C   0  0  0  0  0  0  0  0  0  0  0  0
   -1.1543  -18.0446   23.2695 N   0  0  0  0  0  0  0  0  0  0  0  0
   -3.3503  -21.9120   25.4657 C   0  0  0  0  0  0  0  0  0  0  0  0
   -2.7793  -21.5669   26.4667 O   0  0  0  0  0  0  0  0  0  0  0  0
   -4.6586  -22.5688   25.2856 N   0  0  0  0  0  0  0  0  0  0  0  0
   -5.6604  -22.8960   26.2175 C   0  0  0  0  0  0  0  0  0  0  0  0
   -5.6217  -22.4501   27.5140 C   0  0  0  0  0  0  0  0  0  0  0  0
   -6.9669  -22.1610   27.7734 C   0  0  0  0  0  0  0  0  0  0  0  0
   -7.8610  -22.9272   27.1669 N   0  0  0  0  0  0  0  0  0  0  0  0
   -9.5360  -23.5955   27.5778 C   0  0  0  0  0  0  0  0  0  0  0  0
  -10.4028  -24.3962   26.4757 C   0  0  0  0  0  0  0  0  0  0  0  0
   -9.4349  -24.8037   28.6922 C   0  0  0  0  0  0  0  0  0  0  0  0
  -10.7014  -22.5684   28.1206 C   0  0  0  0  0  0  0  0  0  0  0  0
  -10.8585  -22.1754   29.2662 O   0  0  0  0  0  0  0  0  0  0  0  0
  -11.6645  -22.1681   27.2623 O   0  0  0  0  0  0  0  0  0  0  0  0
   -6.9826  -23.2086   25.9378 N   0  0  0  0  0  0  0  0  0  0  0  0
   -1.6972  -23.4474   23.7779 H   0  0  0  0  0  0  0  0  0  0  0  0
   -3.2482  -23.3122   22.9577 H   0  0  0  0  0  0  0  0  0  0  0  0
   -1.8439  -22.4925   22.2845 H   0  0  0  0  0  0  0  0  0  0  0  0
   -3.3630  -20.8570   23.5225 H   0  0  0  0  0  0  0  0  0  0  0  0
    0.1331  -20.7084   21.6394 H   0  0  0  0  0  0  0  0  0  0  0  0
    0.5397  -18.9730   19.8993 H   0  0  0  0  0  0  0  0  0  0  0  0
   -0.1376  -16.6444   20.3770 H   0  0  0  0  0  0  0  0  0  0  0  0
   -1.1411  -16.0963   22.5926 H   0  0  0  0  0  0  0  0  0  0  0  0
   -4.7878  -22.7875   24.3095 H   0  0  0  0  0  0  0  0  0  0  0  0
   -4.7669  -21.9165   27.9080 H   0  0  0  0  0  0  0  0  0  0  0  0
   -7.3244  -21.1576   27.7695 H   0  0  0  0  0  0  0  0  0  0  0  0
  -10.3300  -24.0854   25.4368 H   0  0  0  0  0  0  0  0  0  0  0  0
  -11.4746  -24.3555   26.7161 H   0  0  0  0  0  0  0  0  0  0  0  0
  -10.2871  -25.4800   26.5353 H   0  0  0  0  0  0  0  0  0  0  0  0
   -8.4776  -24.8220   29.2133 H   0  0  0  0  0  0  0  0  0  0  0  0
   -9.5174  -25.8094   28.2672 H   0  0  0  0  0  0  0  0  0  0  0  0
  -10.2419  -24.7225   29.4298 H   0  0  0  0  0  0  0  0  0  0  0  0
  -11.7301  -22.4185   26.3257 H   0  0  0  0  0  0  0  0  0  0  0  0
  1  2  1  0
  2  3  1  0
  3  4  1  0
  4  5  2  0
  5  6  1  0
  6  7  2  0
  7  8  1  0
  8  9  2  0
  2 10  1  0
 10 11  2  0
 10 12  1  0
 12 13  1  0
 13 14  1  0
 14 15  2  0
 15 16  1  0
 16 17  1  0
 17 18  1  0
 17 19  1  0
 17 20  1  0
 20 21  2  0
 20 22  1  0
 16 23  1  0
  9  4  1  0
 23 13  2  0
  1 24  1  0
  1 25  1  0
  1 26  1  0
  2 27  1  0
  5 28  1  0
  6 29  1  0
  7 30  1  0
  8 31  1  0
 12 32  1  0
 14 33  1  0
 15 34  1  0
 18 35  1  0
 18 36  1  0
 18 37  1  0
 19 38  1  0
 19 39  1  0
 19 40  1  0
 22 41  1  0
M  END
>  <Energy>  (522) 
172.15003942530518

>  <compound_id>  (522) 
19100

>  <target_id>  (522) 
1

>  <reference_id>  (522) 
82

>  <inspiration_ids>  (522) 
[122, 82]

>  <energy_score>  (522) 
121.44459140011526

>  <distance_score>  (522) 
14.493483041806266

>  <path>  (522) 
/opt/xchem-fragalysis-2/maxwin/BulkDock/SCRATCH/511024/C19100-P82/C19100-P82.minimised.mol

>  <scratch_subdir>  (522) 
/opt/xchem-fragalysis-2/maxwin/BulkDock/SCRATCH/511024/C19100-P82

>  <fragmenstein_runtime>  (522) 
21.909186601638794

>  <fragmenstein_outcome>  (522) 
too moved

>  <fragmenstein_mode>  (522) 
expansion

>  <fragmenstein_error>  (522) 


$$$$
C19101-P122
     RDKit          3D

 40 41  0  0  0  0  0  0  0  0999 V2000
    4.0184  -13.1976   18.0553 C   0  0  0  0  0  0  0  0  0  0  0  0
    3.4550  -14.6216   17.6656 C   0  0  0  0  0  0  0  0  0  0  0  0
    1.8931  -15.3302   18.5875 C   0  0  0  0  0  0  0  0  0  0  0  0
    0.4850  -16.1047   19.9706 C   0  0  0  0  0  0  0  0  0  0  0  0
   -1.2409  -15.7835   19.5355 C   0  0  0  0  0  0  0  0  0  0  0  0
   -2.2941  -16.6467   19.4132 C   0  0  0  0  0  0  0  0  0  0  0  0
   -2.0779  -17.7083   20.1071 C   0  0  0  0  0  0  0  0  0  0  0  0
   -0.9581  -17.6417   20.9443 C   0  0  0  0  0  0  0  0  0  0  0  0
    0.3261  -17.0875   20.7746 N   0  0  0  0  0  0  0  0  0  0  0  0
    2.7357  -14.5332   16.2732 C   0  0  0  0  0  0  0  0  0  0  0  0
    2.4058  -15.4709   15.5596 O   0  0  0  0  0  0  0  0  0  0  0  0
    2.4040  -13.2873   15.8749 O   0  0  0  0  0  0  0  0  0  0  0  0
    4.8523  -15.0917   17.2305 N   0  0  0  0  0  0  0  0  0  0  0  0
    5.9977  -15.2839   17.9983 C   0  0  0  0  0  0  0  0  0  0  0  0
    7.1032  -14.8660   17.2806 C   0  0  0  0  0  0  0  0  0  0  0  0
    8.5233  -14.8197   17.7192 C   0  0  0  0  0  0  0  0  0  0  0  0
    8.7899  -13.6705   18.6868 C   0  0  0  0  0  0  0  0  0  0  0  0
   10.2303  -13.6683   19.1751 C   0  0  0  0  0  0  0  0  0  0  0  0
   10.2821  -12.9798   20.4213 O   0  0  0  0  0  0  0  0  0  0  0  0
    6.5816  -14.5415   16.0223 C   0  0  0  0  0  0  0  0  0  0  0  0
    5.2657  -14.7362   15.9485 N   0  0  0  0  0  0  0  0  0  0  0  0
    4.4220  -13.1873   19.0700 H   0  0  0  0  0  0  0  0  0  0  0  0
    3.4138  -12.3289   17.8780 H   0  0  0  0  0  0  0  0  0  0  0  0
    4.8734  -12.8648   17.4463 H   0  0  0  0  0  0  0  0  0  0  0  0
    2.3966  -14.8625   19.4603 H   0  0  0  0  0  0  0  0  0  0  0  0
    1.3404  -14.5387   18.0312 H   0  0  0  0  0  0  0  0  0  0  0  0
   -1.4161  -14.9707   18.8103 H   0  0  0  0  0  0  0  0  0  0  0  0
   -3.0897  -16.6674   18.6983 H   0  0  0  0  0  0  0  0  0  0  0  0
   -2.7351  -18.5422   19.9233 H   0  0  0  0  0  0  0  0  0  0  0  0
   -0.8774  -18.3761   21.7111 H   0  0  0  0  0  0  0  0  0  0  0  0
    2.1004  -13.4367   14.9508 H   0  0  0  0  0  0  0  0  0  0  0  0
    5.9157  -15.6741   18.9940 H   0  0  0  0  0  0  0  0  0  0  0  0
    8.7742  -15.7748   18.1980 H   0  0  0  0  0  0  0  0  0  0  0  0
    9.1799  -14.7244   16.8455 H   0  0  0  0  0  0  0  0  0  0  0  0
    8.1071  -13.7249   19.5404 H   0  0  0  0  0  0  0  0  0  0  0  0
    8.5698  -12.7072   18.2082 H   0  0  0  0  0  0  0  0  0  0  0  0
   10.6075  -14.6822   19.3391 H   0  0  0  0  0  0  0  0  0  0  0  0
   10.8813  -13.1614   18.4555 H   0  0  0  0  0  0  0  0  0  0  0  0
   11.2213  -12.7935   20.6015 H   0  0  0  0  0  0  0  0  0  0  0  0
    7.1056  -14.1945   15.1410 H   0  0  0  0  0  0  0  0  0  0  0  0
  1  2  1  0
  2  3  1  0
  3  4  1  0
  4  5  2  0
  5  6  1  0
  6  7  2  0
  7  8  1  0
  8  9  2  0
  2 10  1  0
 10 11  2  0
 10 12  1  0
  2 13  1  0
 13 14  1  0
 14 15  2  0
 15 16  1  0
 16 17  1  0
 17 18  1  0
 18 19  1  0
 15 20  1  0
 20 21  2  0
  9  4  1  0
 21 13  1  0
  1 22  1  0
  1 23  1  0
  1 24  1  0
  3 25  1  0
  3 26  1  0
  5 27  1  0
  6 28  1  0
  7 29  1  0
  8 30  1  0
 12 31  1  0
 14 32  1  0
 16 33  1  0
 16 34  1  0
 17 35  1  0
 17 36  1  0
 18 37  1  0
 18 38  1  0
 19 39  1  0
 20 40  1  0
M  END
>  <Energy>  (523) 
393.78608420451724

>  <compound_id>  (523) 
19101

>  <target_id>  (523) 
1

>  <reference_id>  (523) 
122

>  <inspiration_ids>  (523) 
[122, 82]

>  <energy_score>  (523) 
328.0310437435845

>  <distance_score>  (523) 
16.244595095557283

>  <path>  (523) 
/opt/xchem-fragalysis-2/maxwin/BulkDock/SCRATCH/511024/C19101-P122/C19101-P122.minimised.mol

>  <scratch_subdir>  (523) 
/opt/xchem-fragalysis-2/maxwin/BulkDock/SCRATCH/511024/C19101-P122

>  <fragmenstein_runtime>  (523) 
24.41891074180603

>  <fragmenstein_outcome>  (523) 
too moved

>  <fragmenstein_mode>  (523) 
expansion

>  <fragmenstein_error>  (523) 


$$$$
C19101-P82
     RDKit          3D

 40 41  0  0  0  0  0  0  0  0999 V2000
    4.0846  -13.1333   18.9655 C   0  0  0  0  0  0  0  0  0  0  0  0
    4.2979  -13.1508   20.8665 C   0  0  0  0  0  0  0  0  0  0  0  0
    3.2090  -14.3056   22.3953 C   0  0  0  0  0  0  0  0  0  0  0  0
    2.0353  -15.4840   23.5525 C   0  0  0  0  0  0  0  0  0  0  0  0
    2.3768  -17.4095   24.2933 C   0  0  0  0  0  0  0  0  0  0  0  0
    0.8391  -18.5420   24.7049 C   0  0  0  0  0  0  0  0  0  0  0  0
   -0.6787  -17.6039   25.4473 C   0  0  0  0  0  0  0  0  0  0  0  0
   -1.0278  -15.7374   24.5910 C   0  0  0  0  0  0  0  0  0  0  0  0
    0.4469  -14.5856   24.1573 N   0  0  0  0  0  0  0  0  0  0  0  0
    5.2923  -11.4764   21.1357 C   0  0  0  0  0  0  0  0  0  0  0  0
    6.0101  -10.8356   20.3456 O   0  0  0  0  0  0  0  0  0  0  0  0
    5.1550  -10.7669   22.3444 O   0  0  0  0  0  0  0  0  0  0  0  0
    5.9221  -13.3860   20.0183 N   0  0  0  0  0  0  0  0  0  0  0  0
    6.3546  -14.1284   18.8086 C   0  0  0  0  0  0  0  0  0  0  0  0
    7.5303  -13.5703   18.3412 C   0  0  0  0  0  0  0  0  0  0  0  0
    8.2218  -13.8301   17.0495 C   0  0  0  0  0  0  0  0  0  0  0  0
    7.6998  -12.9766   15.8941 C   0  0  0  0  0  0  0  0  0  0  0  0
    7.9483  -11.4841   16.0821 C   0  0  0  0  0  0  0  0  0  0  0  0
    7.5939  -10.8089   14.8809 O   0  0  0  0  0  0  0  0  0  0  0  0
    7.9581  -12.7528   19.3886 C   0  0  0  0  0  0  0  0  0  0  0  0
    7.1538  -12.8033   20.4499 N   0  0  0  0  0  0  0  0  0  0  0  0
    3.5019  -12.3659   18.4092 H   0  0  0  0  0  0  0  0  0  0  0  0
    3.7682  -14.0888   18.5200 H   0  0  0  0  0  0  0  0  0  0  0  0
    4.9241  -12.6809   18.4103 H   0  0  0  0  0  0  0  0  0  0  0  0
    3.8725  -15.0682   22.9317 H   0  0  0  0  0  0  0  0  0  0  0  0
    3.1242  -13.4699   23.1689 H   0  0  0  0  0  0  0  0  0  0  0  0
    3.2643  -17.9289   23.9975 H   0  0  0  0  0  0  0  0  0  0  0  0
    0.8652  -19.5237   24.3080 H   0  0  0  0  0  0  0  0  0  0  0  0
   -1.5751  -18.1246   25.8571 H   0  0  0  0  0  0  0  0  0  0  0  0
   -1.9722  -15.2212   24.7991 H   0  0  0  0  0  0  0  0  0  0  0  0
    5.7778  -10.0226   22.1813 H   0  0  0  0  0  0  0  0  0  0  0  0
    5.7010  -14.8844   18.3943 H   0  0  0  0  0  0  0  0  0  0  0  0
    8.0984  -14.8888   16.7883 H   0  0  0  0  0  0  0  0  0  0  0  0
    9.3005  -13.6679   17.1680 H   0  0  0  0  0  0  0  0  0  0  0  0
    6.6260  -13.1469   15.7433 H   0  0  0  0  0  0  0  0  0  0  0  0
    8.1835  -13.3036   14.9647 H   0  0  0  0  0  0  0  0  0  0  0  0
    7.3389  -11.0792   16.8957 H   0  0  0  0  0  0  0  0  0  0  0  0
    9.0038  -11.2823   16.2896 H   0  0  0  0  0  0  0  0  0  0  0  0
    7.6634   -9.8549   15.0587 H   0  0  0  0  0  0  0  0  0  0  0  0
    8.8624  -12.1619   19.4563 H   0  0  0  0  0  0  0  0  0  0  0  0
  1  2  1  0
  2  3  1  0
  3  4  1  0
  4  5  2  0
  5  6  1  0
  6  7  2  0
  7  8  1  0
  8  9  2  0
  2 10  1  0
 10 11  2  0
 10 12  1  0
  2 13  1  0
 13 14  1  0
 14 15  2  0
 15 16  1  0
 16 17  1  0
 17 18  1  0
 18 19  1  0
 15 20  1  0
 20 21  2  0
  9  4  1  0
 21 13  1  0
  1 22  1  0
  1 23  1  0
  1 24  1  0
  3 25  1  0
  3 26  1  0
  5 27  1  0
  6 28  1  0
  7 29  1  0
  8 30  1  0
 12 31  1  0
 14 32  1  0
 16 33  1  0
 16 34  1  0
 17 35  1  0
 17 36  1  0
 18 37  1  0
 18 38  1  0
 19 39  1  0
 20 40  1  0
M  END
>  <Energy>  (524) 
1269.7715555300194

>  <compound_id>  (524) 
19101

>  <target_id>  (524) 
1

>  <reference_id>  (524) 
82

>  <inspiration_ids>  (524) 
[122, 82]

>  <energy_score>  (524) 
1204.0165150691178

>  <distance_score>  (524) 
15.125450466493291

>  <path>  (524) 
/opt/xchem-fragalysis-2/maxwin/BulkDock/SCRATCH/511024/C19101-P82/C19101-P82.minimised.mol

>  <scratch_subdir>  (524) 
/opt/xchem-fragalysis-2/maxwin/BulkDock/SCRATCH/511024/C19101-P82

>  <fragmenstein_runtime>  (524) 
18.638986825942993

>  <fragmenstein_outcome>  (524) 
too moved

>  <fragmenstein_mode>  (524) 
expansion

>  <fragmenstein_error>  (524) 


$$$$
C18749-P122
     RDKit          3D

 39 41  0  0  0  0  0  0  0  0999 V2000
   -5.3588  -17.5095   21.1822 C   0  0  0  0  0  0  0  0  0  0  0  0
   -4.8129  -16.5264   22.2418 C   0  0  0  0  0  0  0  0  0  0  0  0
   -5.9420  -16.3553   23.3918 C   0  0  0  0  0  0  0  0  0  0  0  0
   -6.3493  -17.4620   24.4080 C   0  0  0  0  0  0  0  0  0  0  0  0
   -5.9401  -18.8005   24.3855 C   0  0  0  0  0  0  0  0  0  0  0  0
   -6.3797  -19.6829   25.3813 C   0  0  0  0  0  0  0  0  0  0  0  0
   -7.1951  -19.3390   26.3989 N   0  0  0  0  0  0  0  0  0  0  0  0
   -7.5944  -18.0551   26.4189 C   0  0  0  0  0  0  0  0  0  0  0  0
   -7.2122  -17.1079   25.4667 C   0  0  0  0  0  0  0  0  0  0  0  0
   -3.5761  -17.0892   22.9159 C   0  0  0  0  0  0  0  0  0  0  0  0
   -2.9414  -18.0735   22.5682 O   0  0  0  0  0  0  0  0  0  0  0  0
   -3.1928  -16.3886   24.0018 O   0  0  0  0  0  0  0  0  0  0  0  0
   -4.3855  -15.2909   21.4818 N   0  0  0  0  0  0  0  0  0  0  0  0
   -3.4147  -15.2065   20.4777 C   0  0  0  0  0  0  0  0  0  0  0  0
   -3.6255  -14.0228   19.7899 C   0  0  0  0  0  0  0  0  0  0  0  0
   -3.0114  -13.6088   18.5422 C   0  0  0  0  0  0  0  0  0  0  0  0
   -2.5859  -14.5417   17.5944 C   0  0  0  0  0  0  0  0  0  0  0  0
   -2.0149  -14.0761   16.4199 C   0  0  0  0  0  0  0  0  0  0  0  0
   -1.8447  -12.7684   16.1309 N   0  0  0  0  0  0  0  0  0  0  0  0
   -2.2737  -11.8842   17.0558 C   0  0  0  0  0  0  0  0  0  0  0  0
   -2.8566  -12.2489   18.2579 C   0  0  0  0  0  0  0  0  0  0  0  0
   -4.6654  -13.4063   20.5123 C   0  0  0  0  0  0  0  0  0  0  0  0
   -5.1071  -14.1452   21.5396 N   0  0  0  0  0  0  0  0  0  0  0  0
   -5.6831  -18.4587   21.6141 H   0  0  0  0  0  0  0  0  0  0  0  0
   -4.6036  -17.7581   20.4270 H   0  0  0  0  0  0  0  0  0  0  0  0
   -6.2176  -17.0765   20.6556 H   0  0  0  0  0  0  0  0  0  0  0  0
   -6.8693  -16.0507   22.8859 H   0  0  0  0  0  0  0  0  0  0  0  0
   -5.6359  -15.4921   24.0010 H   0  0  0  0  0  0  0  0  0  0  0  0
   -5.2740  -19.1959   23.6275 H   0  0  0  0  0  0  0  0  0  0  0  0
   -6.0651  -20.7240   25.3759 H   0  0  0  0  0  0  0  0  0  0  0  0
   -8.2499  -17.7833   27.2403 H   0  0  0  0  0  0  0  0  0  0  0  0
   -7.5771  -16.0880   25.5615 H   0  0  0  0  0  0  0  0  0  0  0  0
   -2.4463  -16.8917   24.3873 H   0  0  0  0  0  0  0  0  0  0  0  0
   -2.7467  -16.0381   20.2962 H   0  0  0  0  0  0  0  0  0  0  0  0
   -2.6958  -15.6088   17.7499 H   0  0  0  0  0  0  0  0  0  0  0  0
   -1.6700  -14.7667   15.6552 H   0  0  0  0  0  0  0  0  0  0  0  0
   -2.1215  -10.8369   16.8081 H   0  0  0  0  0  0  0  0  0  0  0  0
   -3.1504  -11.4746   18.9585 H   0  0  0  0  0  0  0  0  0  0  0  0
   -5.1531  -12.4597   20.3155 H   0  0  0  0  0  0  0  0  0  0  0  0
  1  2  1  0
  2  3  1  0
  3  4  1  0
  4  5  2  0
  5  6  1  0
  6  7  2  0
  7  8  1  0
  8  9  2  0
  2 10  1  0
 10 11  2  0
 10 12  1  0
  2 13  1  0
 13 14  1  0
 14 15  2  0
 15 16  1  0
 16 17  2  0
 17 18  1  0
 18 19  2  0
 19 20  1  0
 20 21  2  0
 15 22  1  0
 22 23  2  0
  9  4  1  0
 23 13  1  0
 21 16  1  0
  1 24  1  0
  1 25  1  0
  1 26  1  0
  3 27  1  0
  3 28  1  0
  5 29  1  0
  6 30  1  0
  8 31  1  0
  9 32  1  0
 12 33  1  0
 14 34  1  0
 17 35  1  0
 18 36  1  0
 20 37  1  0
 21 38  1  0
 22 39  1  0
M  END
>  <Energy>  (525) 
44.996174802834183

>  <compound_id>  (525) 
18749

>  <target_id>  (525) 
1

>  <reference_id>  (525) 
122

>  <inspiration_ids>  (525) 
[122, 82]

>  <energy_score>  (525) 
-38.93326913196023

>  <distance_score>  (525) 
16.0423910857848

>  <path>  (525) 
/opt/xchem-fragalysis-2/maxwin/BulkDock/SCRATCH/511024/C18749-P122/C18749-P122.minimised.mol

>  <scratch_subdir>  (525) 
/opt/xchem-fragalysis-2/maxwin/BulkDock/SCRATCH/511024/C18749-P122

>  <fragmenstein_runtime>  (525) 
23.288537979125977

>  <fragmenstein_outcome>  (525) 
too moved

>  <fragmenstein_mode>  (525) 
expansion

>  <fragmenstein_error>  (525) 


$$$$
C18749-P82
     RDKit          3D

 39 41  0  0  0  0  0  0  0  0999 V2000
   -3.4537  -12.1502   33.3931 C   0  0  0  0  0  0  0  0  0  0  0  0
   -2.5995  -12.9147   32.3557 C   0  0  0  0  0  0  0  0  0  0  0  0
   -3.5955  -13.5709   31.2643 C   0  0  0  0  0  0  0  0  0  0  0  0
   -4.4280  -14.8491   31.5817 C   0  0  0  0  0  0  0  0  0  0  0  0
   -4.1338  -16.0709   30.9465 C   0  0  0  0  0  0  0  0  0  0  0  0
   -4.9128  -17.2033   31.2005 C   0  0  0  0  0  0  0  0  0  0  0  0
   -5.9662  -17.2172   32.0406 N   0  0  0  0  0  0  0  0  0  0  0  0
   -6.2545  -16.0404   32.6369 C   0  0  0  0  0  0  0  0  0  0  0  0
   -5.5367  -14.8547   32.4372 C   0  0  0  0  0  0  0  0  0  0  0  0
   -1.9351  -14.0978   33.0607 C   0  0  0  0  0  0  0  0  0  0  0  0
   -1.9402  -14.3305   34.2612 O   0  0  0  0  0  0  0  0  0  0  0  0
   -1.2596  -14.9349   32.2423 O   0  0  0  0  0  0  0  0  0  0  0  0
   -1.5204  -11.9326   31.9166 N   0  0  0  0  0  0  0  0  0  0  0  0
   -0.2680  -11.8061   32.5192 C   0  0  0  0  0  0  0  0  0  0  0  0
    0.2866  -10.6022   32.1428 C   0  0  0  0  0  0  0  0  0  0  0  0
    1.3715   -9.9908   32.8850 C   0  0  0  0  0  0  0  0  0  0  0  0
    1.2259   -8.6918   33.3789 C   0  0  0  0  0  0  0  0  0  0  0  0
    2.2237   -8.1785   34.1920 C   0  0  0  0  0  0  0  0  0  0  0  0
    3.3425   -8.8566   34.5251 N   0  0  0  0  0  0  0  0  0  0  0  0
    3.4602  -10.1100   34.0374 C   0  0  0  0  0  0  0  0  0  0  0  0
    2.5103  -10.7163   33.2318 C   0  0  0  0  0  0  0  0  0  0  0  0
   -0.6380  -10.0840   31.2236 C   0  0  0  0  0  0  0  0  0  0  0  0
   -1.7718  -10.8104   31.1586 N   0  0  0  0  0  0  0  0  0  0  0  0
   -4.1395  -12.8118   33.9304 H   0  0  0  0  0  0  0  0  0  0  0  0
   -4.0465  -11.3628   32.9140 H   0  0  0  0  0  0  0  0  0  0  0  0
   -2.8265  -11.6697   34.1546 H   0  0  0  0  0  0  0  0  0  0  0  0
   -3.0040  -13.8045   30.3741 H   0  0  0  0  0  0  0  0  0  0  0  0
   -4.3018  -12.7993   30.9296 H   0  0  0  0  0  0  0  0  0  0  0  0
   -3.3041  -16.1452   30.2484 H   0  0  0  0  0  0  0  0  0  0  0  0
   -4.6932  -18.1498   30.7148 H   0  0  0  0  0  0  0  0  0  0  0  0
   -7.1144  -16.0584   33.3018 H   0  0  0  0  0  0  0  0  0  0  0  0
   -5.8683  -13.9510   32.9378 H   0  0  0  0  0  0  0  0  0  0  0  0
   -0.9532  -15.6488   32.8419 H   0  0  0  0  0  0  0  0  0  0  0  0
    0.0547  -12.5170   33.2667 H   0  0  0  0  0  0  0  0  0  0  0  0
    0.3456   -8.0955   33.1661 H   0  0  0  0  0  0  0  0  0  0  0  0
    2.1471   -7.1779   34.6077 H   0  0  0  0  0  0  0  0  0  0  0  0
    4.3670  -10.6345   34.3244 H   0  0  0  0  0  0  0  0  0  0  0  0
    2.6587  -11.7320   32.8903 H   0  0  0  0  0  0  0  0  0  0  0  0
   -0.5669   -9.1471   30.6877 H   0  0  0  0  0  0  0  0  0  0  0  0
  1  2  1  0
  2  3  1  0
  3  4  1  0
  4  5  2  0
  5  6  1  0
  6  7  2  0
  7  8  1  0
  8  9  2  0
  2 10  1  0
 10 11  2  0
 10 12  1  0
  2 13  1  0
 13 14  1  0
 14 15  2  0
 15 16  1  0
 16 17  2  0
 17 18  1  0
 18 19  2  0
 19 20  1  0
 20 21  2  0
 15 22  1  0
 22 23  2  0
  9  4  1  0
 23 13  1  0
 21 16  1  0
  1 24  1  0
  1 25  1  0
  1 26  1  0
  3 27  1  0
  3 28  1  0
  5 29  1  0
  6 30  1  0
  8 31  1  0
  9 32  1  0
 12 33  1  0
 14 34  1  0
 17 35  1  0
 18 36  1  0
 20 37  1  0
 21 38  1  0
 22 39  1  0
M  END
>  <Energy>  (526) 
50.998690030011872

>  <compound_id>  (526) 
18749

>  <target_id>  (526) 
1

>  <reference_id>  (526) 
82

>  <inspiration_ids>  (526) 
[122, 82]

>  <energy_score>  (526) 
-32.93075390477861

>  <distance_score>  (526) 
16.97628200747803

>  <path>  (526) 
/opt/xchem-fragalysis-2/maxwin/BulkDock/SCRATCH/511024/C18749-P82/C18749-P82.minimised.mol

>  <scratch_subdir>  (526) 
/opt/xchem-fragalysis-2/maxwin/BulkDock/SCRATCH/511024/C18749-P82

>  <fragmenstein_runtime>  (526) 
23.889198541641235

>  <fragmenstein_outcome>  (526) 
too moved

>  <fragmenstein_mode>  (526) 
expansion

>  <fragmenstein_error>  (526) 


$$$$
C19103-P122
     RDKit          3D

 41 42  0  0  0  0  0  0  0  0999 V2000
    6.5825  -11.1365   27.0737 C   0  0  0  0  0  0  0  0  0  0  0  0
    5.5770  -10.6764   26.0166 C   0  0  0  0  0  0  0  0  0  0  0  0
    5.7150   -9.2488   25.7813 O   0  0  0  0  0  0  0  0  0  0  0  0
    6.8143   -8.7390   25.0854 C   0  0  0  0  0  0  0  0  0  0  0  0
    6.8025   -7.3668   24.8153 C   0  0  0  0  0  0  0  0  0  0  0  0
    7.8756   -6.7815   24.1291 C   0  0  0  0  0  0  0  0  0  0  0  0
    8.9396   -7.5791   23.7339 C   0  0  0  0  0  0  0  0  0  0  0  0
    8.8689   -8.9325   24.0383 C   0  0  0  0  0  0  0  0  0  0  0  0
    7.8291   -9.5352   24.6901 N   0  0  0  0  0  0  0  0  0  0  0  0
    4.0961  -11.0298   26.5856 C   0  0  0  0  0  0  0  0  0  0  0  0
    3.4198  -10.1122   26.9731 O   0  0  0  0  0  0  0  0  0  0  0  0
    3.8365  -12.4748   26.5835 N   0  0  0  0  0  0  0  0  0  0  0  0
    2.7010  -13.1994   26.9428 C   0  0  0  0  0  0  0  0  0  0  0  0
    2.5453  -14.6152   26.8663 C   0  0  0  0  0  0  0  0  0  0  0  0
    1.2661  -14.9024   27.2979 C   0  0  0  0  0  0  0  0  0  0  0  0
    0.6883  -13.6915   27.5540 N   0  0  0  0  0  0  0  0  0  0  0  0
   -0.6824  -13.4081   28.0192 C   0  0  0  0  0  0  0  0  0  0  0  0
   -1.6731  -14.4600   27.4760 C   0  0  0  0  0  0  0  0  0  0  0  0
   -0.7018  -13.4344   29.5556 C   0  0  0  0  0  0  0  0  0  0  0  0
   -1.1974  -12.0206   27.5832 C   0  0  0  0  0  0  0  0  0  0  0  0
   -2.3861  -11.7715   27.3985 O   0  0  0  0  0  0  0  0  0  0  0  0
   -0.2876  -11.0222   27.4774 O   0  0  0  0  0  0  0  0  0  0  0  0
    1.5826  -12.6669   27.4523 N   0  0  0  0  0  0  0  0  0  0  0  0
    6.4437  -10.5711   28.0023 H   0  0  0  0  0  0  0  0  0  0  0  0
    6.4729  -12.1996   27.3075 H   0  0  0  0  0  0  0  0  0  0  0  0
    7.6158  -10.9725   26.7579 H   0  0  0  0  0  0  0  0  0  0  0  0
    5.7032  -11.2086   25.0682 H   0  0  0  0  0  0  0  0  0  0  0  0
    5.9594   -6.7626   25.1350 H   0  0  0  0  0  0  0  0  0  0  0  0
    7.8706   -5.7170   23.9167 H   0  0  0  0  0  0  0  0  0  0  0  0
    9.7929   -7.1671   23.2076 H   0  0  0  0  0  0  0  0  0  0  0  0
    9.6720   -9.6061   23.7493 H   0  0  0  0  0  0  0  0  0  0  0  0
    4.6606  -12.9584   26.2567 H   0  0  0  0  0  0  0  0  0  0  0  0
    3.2765  -15.3349   26.5280 H   0  0  0  0  0  0  0  0  0  0  0  0
    0.7404  -15.8414   27.3952 H   0  0  0  0  0  0  0  0  0  0  0  0
   -1.4456  -15.4668   27.8429 H   0  0  0  0  0  0  0  0  0  0  0  0
   -1.6560  -14.4874   26.3799 H   0  0  0  0  0  0  0  0  0  0  0  0
   -2.7031  -14.2414   27.7818 H   0  0  0  0  0  0  0  0  0  0  0  0
   -0.0273  -12.6785   29.9756 H   0  0  0  0  0  0  0  0  0  0  0  0
   -0.3862  -14.4097   29.9437 H   0  0  0  0  0  0  0  0  0  0  0  0
   -1.7051  -13.2250   29.9445 H   0  0  0  0  0  0  0  0  0  0  0  0
    0.6456  -11.3610   27.5655 H   0  0  0  0  0  0  0  0  0  0  0  0
  1  2  1  0
  2  3  1  0
  3  4  1  0
  4  5  2  0
  5  6  1  0
  6  7  2  0
  7  8  1  0
  8  9  2  0
  2 10  1  0
 10 11  2  0
 10 12  1  0
 12 13  1  0
 13 14  1  0
 14 15  2  0
 15 16  1  0
 16 17  1  0
 17 18  1  0
 17 19  1  0
 17 20  1  0
 20 21  2  0
 20 22  1  0
 16 23  1  0
  9  4  1  0
 23 13  2  0
  1 24  1  0
  1 25  1  0
  1 26  1  0
  2 27  1  0
  5 28  1  0
  6 29  1  0
  7 30  1  0
  8 31  1  0
 12 32  1  0
 14 33  1  0
 15 34  1  0
 18 35  1  0
 18 36  1  0
 18 37  1  0
 19 38  1  0
 19 39  1  0
 19 40  1  0
 22 41  1  0
M  END
>  <Energy>  (527) 
-0.23115876218864795

>  <compound_id>  (527) 
19103

>  <target_id>  (527) 
1

>  <reference_id>  (527) 
122

>  <inspiration_ids>  (527) 
[122, 82]

>  <energy_score>  (527) 
-58.88831783260122

>  <distance_score>  (527) 
16.759123478594166

>  <path>  (527) 
/opt/xchem-fragalysis-2/maxwin/BulkDock/SCRATCH/511024/C19103-P122/C19103-P122.minimised.mol

>  <scratch_subdir>  (527) 
/opt/xchem-fragalysis-2/maxwin/BulkDock/SCRATCH/511024/C19103-P122

>  <fragmenstein_runtime>  (527) 
37.55235266685486

>  <fragmenstein_outcome>  (527) 
too moved

>  <fragmenstein_mode>  (527) 
expansion

>  <fragmenstein_error>  (527) 


$$$$
C19103-P82
     RDKit          3D

 41 42  0  0  0  0  0  0  0  0999 V2000
   -2.8785   -7.3893   19.5357 C   0  0  0  0  0  0  0  0  0  0  0  0
   -1.8397   -8.0176   20.4664 C   0  0  0  0  0  0  0  0  0  0  0  0
   -0.8382   -7.0159   20.7804 O   0  0  0  0  0  0  0  0  0  0  0  0
    0.1236   -6.5633   19.8958 C   0  0  0  0  0  0  0  0  0  0  0  0
    0.4893   -7.1535   18.6937 C   0  0  0  0  0  0  0  0  0  0  0  0
    1.5248   -6.5911   17.9193 C   0  0  0  0  0  0  0  0  0  0  0  0
    2.1780   -5.4471   18.3558 C   0  0  0  0  0  0  0  0  0  0  0  0
    1.7562   -4.9121   19.5557 C   0  0  0  0  0  0  0  0  0  0  0  0
    0.7544   -5.4372   20.3156 N   0  0  0  0  0  0  0  0  0  0  0  0
   -2.6204   -8.5976   21.7869 C   0  0  0  0  0  0  0  0  0  0  0  0
   -2.3545   -8.1148   22.8562 O   0  0  0  0  0  0  0  0  0  0  0  0
   -3.5474   -9.6846   21.4308 N   0  0  0  0  0  0  0  0  0  0  0  0
   -4.4495  -10.4060   22.2083 C   0  0  0  0  0  0  0  0  0  0  0  0
   -4.7622  -10.2693   23.5897 C   0  0  0  0  0  0  0  0  0  0  0  0
   -5.6073  -11.3128   23.9096 C   0  0  0  0  0  0  0  0  0  0  0  0
   -5.7691  -12.0262   22.7532 N   0  0  0  0  0  0  0  0  0  0  0  0
   -6.6304  -13.1987   22.5395 C   0  0  0  0  0  0  0  0  0  0  0  0
   -8.0741  -12.7151   22.3168 C   0  0  0  0  0  0  0  0  0  0  0  0
   -6.1965  -14.0341   21.3177 C   0  0  0  0  0  0  0  0  0  0  0  0
   -6.5833  -14.1169   23.7572 C   0  0  0  0  0  0  0  0  0  0  0  0
   -7.5235  -14.4187   24.4776 O   0  0  0  0  0  0  0  0  0  0  0  0
   -5.3592  -14.6236   24.0204 O   0  0  0  0  0  0  0  0  0  0  0  0
   -5.1184  -11.4530   21.7004 N   0  0  0  0  0  0  0  0  0  0  0  0
   -3.3740   -6.5477   20.0328 H   0  0  0  0  0  0  0  0  0  0  0  0
   -2.4160   -6.9921   18.6271 H   0  0  0  0  0  0  0  0  0  0  0  0
   -3.6501   -8.1025   19.2332 H   0  0  0  0  0  0  0  0  0  0  0  0
   -1.3613   -8.8791   19.9997 H   0  0  0  0  0  0  0  0  0  0  0  0
    0.0136   -8.0632   18.3530 H   0  0  0  0  0  0  0  0  0  0  0  0
    1.8230   -7.0706   16.9911 H   0  0  0  0  0  0  0  0  0  0  0  0
    2.9869   -4.9998   17.7931 H   0  0  0  0  0  0  0  0  0  0  0  0
    2.2271   -4.0273   19.9745 H   0  0  0  0  0  0  0  0  0  0  0  0
   -3.4580   -9.8868   20.4451 H   0  0  0  0  0  0  0  0  0  0  0  0
   -4.3905   -9.5126   24.2680 H   0  0  0  0  0  0  0  0  0  0  0  0
   -6.0853  -11.5881   24.8401 H   0  0  0  0  0  0  0  0  0  0  0  0
   -8.1433  -12.0546   21.4446 H   0  0  0  0  0  0  0  0  0  0  0  0
   -8.4482  -12.1550   23.1823 H   0  0  0  0  0  0  0  0  0  0  0  0
   -8.7561  -13.5581   22.1556 H   0  0  0  0  0  0  0  0  0  0  0  0
   -6.3226  -13.4781   20.3815 H   0  0  0  0  0  0  0  0  0  0  0  0
   -6.7893  -14.9531   21.2389 H   0  0  0  0  0  0  0  0  0  0  0  0
   -5.1433  -14.3313   21.3846 H   0  0  0  0  0  0  0  0  0  0  0  0
   -5.4808  -15.1840   24.8180 H   0  0  0  0  0  0  0  0  0  0  0  0
  1  2  1  0
  2  3  1  0
  3  4  1  0
  4  5  2  0
  5  6  1  0
  6  7  2  0
  7  8  1  0
  8  9  2  0
  2 10  1  0
 10 11  2  0
 10 12  1  0
 12 13  1  0
 13 14  1  0
 14 15  2  0
 15 16  1  0
 16 17  1  0
 17 18  1  0
 17 19  1  0
 17 20  1  0
 20 21  2  0
 20 22  1  0
 16 23  1  0
  9  4  1  0
 23 13  2  0
  1 24  1  0
  1 25  1  0
  1 26  1  0
  2 27  1  0
  5 28  1  0
  6 29  1  0
  7 30  1  0
  8 31  1  0
 12 32  1  0
 14 33  1  0
 15 34  1  0
 18 35  1  0
 18 36  1  0
 18 37  1  0
 19 38  1  0
 19 39  1  0
 19 40  1  0
 22 41  1  0
M  END
>  <Energy>  (528) 
6.0933912592945028

>  <compound_id>  (528) 
19103

>  <target_id>  (528) 
1

>  <reference_id>  (528) 
82

>  <inspiration_ids>  (528) 
[122, 82]

>  <energy_score>  (528) 
-52.56376781111658

>  <distance_score>  (528) 
16.433080430274778

>  <path>  (528) 
/opt/xchem-fragalysis-2/maxwin/BulkDock/SCRATCH/511024/C19103-P82/C19103-P82.minimised.mol

>  <scratch_subdir>  (528) 
/opt/xchem-fragalysis-2/maxwin/BulkDock/SCRATCH/511024/C19103-P82

>  <fragmenstein_runtime>  (528) 
32.384050130844116

>  <fragmenstein_outcome>  (528) 
too moved

>  <fragmenstein_mode>  (528) 
expansion

>  <fragmenstein_error>  (528) 


$$$$
C46417-P122
     RDKit          3D

 26 28  0  0  0  0  0  0  0  0999 V2000
   -1.5963  -15.2588   24.0972 C   0  0  0  0  0  0  0  0  0  0  0  0
   -0.7310  -14.3595   24.4081 N   0  0  0  0  0  0  0  0  0  0  0  0
   -1.4506  -13.7861   25.3385 N   0  0  0  0  0  0  0  0  0  0  0  0
   -2.2068  -14.7007   25.9265 C   0  0  0  0  0  0  0  0  0  0  0  0
   -2.4323  -15.7900   25.0399 C   0  0  0  0  0  0  0  0  0  0  0  0
   -2.1926  -17.4479   25.7390 C   0  0  0  0  0  0  0  0  0  0  0  0
   -1.1547  -18.2487   26.4044 C   0  0  0  0  0  0  0  0  0  0  0  0
   -1.6374  -19.4796   26.7407 N   0  0  0  0  0  0  0  0  0  0  0  0
   -2.7150  -19.3236   25.9702 N   0  0  0  0  0  0  0  0  0  0  0  0
   -2.7352  -17.7981   26.9070 C   0  0  0  0  0  0  0  0  0  0  0  0
   -3.9737  -17.1738   27.4393 C   0  0  0  0  0  0  0  0  0  0  0  0
   -5.5449  -18.3614   27.5996 C   0  0  0  0  0  0  0  0  0  0  0  0
   -5.7819  -19.6024   26.5319 C   0  0  0  0  0  0  0  0  0  0  0  0
   -4.4407  -20.1496   25.6359 C   0  0  0  0  0  0  0  0  0  0  0  0
   -1.4061  -15.0947   23.0714 H   0  0  0  0  0  0  0  0  0  0  0  0
   -0.9469  -12.9802   25.6226 H   0  0  0  0  0  0  0  0  0  0  0  0
   -2.1372  -14.8228   27.0088 H   0  0  0  0  0  0  0  0  0  0  0  0
   -0.1950  -18.0200   26.8102 H   0  0  0  0  0  0  0  0  0  0  0  0
   -3.2168  -16.6742   28.0478 H   0  0  0  0  0  0  0  0  0  0  0  0
   -4.3423  -16.5321   28.2523 H   0  0  0  0  0  0  0  0  0  0  0  0
   -6.5059  -17.8670   27.3527 H   0  0  0  0  0  0  0  0  0  0  0  0
   -5.9124  -18.3862   28.6302 H   0  0  0  0  0  0  0  0  0  0  0  0
   -6.2701  -20.4681   26.9762 H   0  0  0  0  0  0  0  0  0  0  0  0
   -6.5287  -19.2887   25.7845 H   0  0  0  0  0  0  0  0  0  0  0  0
   -4.5210  -21.2422   25.6543 H   0  0  0  0  0  0  0  0  0  0  0  0
   -4.4957  -19.9262   24.5609 H   0  0  0  0  0  0  0  0  0  0  0  0
  1  2  2  0
  2  3  1  0
  3  4  1  0
  4  5  2  0
  5  6  1  0
  6  7  1  0
  7  8  2  0
  8  9  1  0
  9 10  1  0
 10 11  1  0
 11 12  1  0
 12 13  1  0
 13 14  1  0
  5  1  1  0
 10  6  2  0
 14  9  1  0
  1 15  1  0
  3 16  1  0
  4 17  1  0
  7 18  1  0
 11 19  1  0
 11 20  1  0
 12 21  1  0
 12 22  1  0
 13 23  1  0
 13 24  1  0
 14 25  1  0
 14 26  1  0
M  END
>  <Energy>  (529) 
530.62255151136776

>  <compound_id>  (529) 
46417

>  <target_id>  (529) 
1

>  <reference_id>  (529) 
122

>  <inspiration_ids>  (529) 
[122, 82]

>  <energy_score>  (529) 
476.9992721646132

>  <distance_score>  (529) 
15.727967875736768

>  <path>  (529) 
/opt/xchem-fragalysis-2/maxwin/BulkDock/SCRATCH/511024/C46417-P122/C46417-P122.minimised.mol

>  <scratch_subdir>  (529) 
/opt/xchem-fragalysis-2/maxwin/BulkDock/SCRATCH/511024/C46417-P122

>  <fragmenstein_runtime>  (529) 
14.663778066635132

>  <fragmenstein_outcome>  (529) 
too moved

>  <fragmenstein_mode>  (529) 
expansion

>  <fragmenstein_error>  (529) 


$$$$
C46417-P82
     RDKit          3D

 26 28  0  0  0  0  0  0  0  0999 V2000
    2.4230  -15.9955   17.6704 C   0  0  0  0  0  0  0  0  0  0  0  0
    2.7124  -14.8542   17.0286 N   0  0  0  0  0  0  0  0  0  0  0  0
    1.5067  -14.4216   16.6282 N   0  0  0  0  0  0  0  0  0  0  0  0
    0.4769  -15.2585   16.9834 C   0  0  0  0  0  0  0  0  0  0  0  0
    1.0245  -16.3061   17.6959 C   0  0  0  0  0  0  0  0  0  0  0  0
    0.3866  -17.4853   18.3775 C   0  0  0  0  0  0  0  0  0  0  0  0
    1.1070  -18.6882   18.6078 C   0  0  0  0  0  0  0  0  0  0  0  0
    0.3979  -19.6321   19.2317 N   0  0  0  0  0  0  0  0  0  0  0  0
   -0.7673  -19.0226   19.5000 N   0  0  0  0  0  0  0  0  0  0  0  0
   -0.8887  -17.7859   18.8970 C   0  0  0  0  0  0  0  0  0  0  0  0
   -2.2205  -17.0973   18.9000 C   0  0  0  0  0  0  0  0  0  0  0  0
   -3.3804  -17.8553   19.5905 C   0  0  0  0  0  0  0  0  0  0  0  0
   -3.1846  -19.3649   19.7455 C   0  0  0  0  0  0  0  0  0  0  0  0
   -1.7958  -19.7110   20.2669 C   0  0  0  0  0  0  0  0  0  0  0  0
    3.2363  -16.5563   18.1117 H   0  0  0  0  0  0  0  0  0  0  0  0
    1.4542  -13.5504   16.1115 H   0  0  0  0  0  0  0  0  0  0  0  0
   -0.5444  -15.0242   16.7230 H   0  0  0  0  0  0  0  0  0  0  0  0
    2.1277  -18.9207   18.3348 H   0  0  0  0  0  0  0  0  0  0  0  0
   -2.1219  -16.0996   19.3418 H   0  0  0  0  0  0  0  0  0  0  0  0
   -2.5024  -16.9382   17.8508 H   0  0  0  0  0  0  0  0  0  0  0  0
   -4.3049  -17.6692   19.0289 H   0  0  0  0  0  0  0  0  0  0  0  0
   -3.5630  -17.4023   20.5641 H   0  0  0  0  0  0  0  0  0  0  0  0
   -3.3176  -19.8295   18.7596 H   0  0  0  0  0  0  0  0  0  0  0  0
   -3.9564  -19.7878   20.3972 H   0  0  0  0  0  0  0  0  0  0  0  0
   -1.6186  -20.7887   20.1831 H   0  0  0  0  0  0  0  0  0  0  0  0
   -1.6511  -19.4183   21.3080 H   0  0  0  0  0  0  0  0  0  0  0  0
  1  2  2  0
  2  3  1  0
  3  4  1  0
  4  5  2  0
  5  6  1  0
  6  7  1  0
  7  8  2  0
  8  9  1  0
  9 10  1  0
 10 11  1  0
 11 12  1  0
 12 13  1  0
 13 14  1  0
  5  1  1  0
 10  6  2  0
 14  9  1  0
  1 15  1  0
  3 16  1  0
  4 17  1  0
  7 18  1  0
 11 19  1  0
 11 20  1  0
 12 21  1  0
 12 22  1  0
 13 23  1  0
 13 24  1  0
 14 25  1  0
 14 26  1  0
M  END
>  <Energy>  (530) 
27.672567818075905

>  <compound_id>  (530) 
46417

>  <target_id>  (530) 
1

>  <reference_id>  (530) 
82

>  <inspiration_ids>  (530) 
[122, 82]

>  <energy_score>  (530) 
-25.95071152867979

>  <distance_score>  (530) 
16.846571728052297

>  <path>  (530) 
/opt/xchem-fragalysis-2/maxwin/BulkDock/SCRATCH/511024/C46417-P82/C46417-P82.minimised.mol

>  <scratch_subdir>  (530) 
/opt/xchem-fragalysis-2/maxwin/BulkDock/SCRATCH/511024/C46417-P82

>  <fragmenstein_runtime>  (530) 
9.374189138412476

>  <fragmenstein_outcome>  (530) 
too moved

>  <fragmenstein_mode>  (530) 
expansion

>  <fragmenstein_error>  (530) 


$$$$
C19099-P122
     RDKit          3D

 30 31  0  0  0  0  0  0  0  0999 V2000
   -7.0502  -18.8476   20.4814 C   0  0  0  0  0  0  0  0  0  0  0  0
   -6.3567  -19.7908   19.4738 C   0  0  0  0  0  0  0  0  0  0  0  0
   -6.0194  -21.1910   20.1336 C   0  0  0  0  0  0  0  0  0  0  0  0
   -6.9230  -21.8823   21.1803 C   0  0  0  0  0  0  0  0  0  0  0  0
   -8.3157  -21.9229   21.1058 C   0  0  0  0  0  0  0  0  0  0  0  0
   -9.0440  -22.7282   21.9871 C   0  0  0  0  0  0  0  0  0  0  0  0
   -8.3710  -23.5049   22.9129 C   0  0  0  0  0  0  0  0  0  0  0  0
   -6.9963  -23.3896   22.9712 C   0  0  0  0  0  0  0  0  0  0  0  0
   -6.2717  -22.6083   22.1336 N   0  0  0  0  0  0  0  0  0  0  0  0
   -7.3565  -20.0533   18.3184 C   0  0  0  0  0  0  0  0  0  0  0  0
   -7.9508  -21.1105   18.1399 O   0  0  0  0  0  0  0  0  0  0  0  0
   -7.6118  -19.0023   17.4975 O   0  0  0  0  0  0  0  0  0  0  0  0
   -5.1711  -19.0521   18.9147 N   0  0  0  0  0  0  0  0  0  0  0  0
   -3.8255  -19.2377   19.0909 C   0  0  0  0  0  0  0  0  0  0  0  0
   -3.1959  -18.1215   18.5965 C   0  0  0  0  0  0  0  0  0  0  0  0
   -4.2012  -17.4510   17.8931 C   0  0  0  0  0  0  0  0  0  0  0  0
   -5.4086  -17.9595   18.1236 N   0  0  0  0  0  0  0  0  0  0  0  0
   -7.2330  -17.8546   20.0529 H   0  0  0  0  0  0  0  0  0  0  0  0
   -6.4463  -18.6984   21.3789 H   0  0  0  0  0  0  0  0  0  0  0  0
   -8.0306  -19.2194   20.7913 H   0  0  0  0  0  0  0  0  0  0  0  0
   -5.8809  -21.9286   19.3295 H   0  0  0  0  0  0  0  0  0  0  0  0
   -5.0332  -21.1344   20.5982 H   0  0  0  0  0  0  0  0  0  0  0  0
   -8.8627  -21.3808   20.3432 H   0  0  0  0  0  0  0  0  0  0  0  0
  -10.1272  -22.7715   21.9165 H   0  0  0  0  0  0  0  0  0  0  0  0
   -8.9106  -24.1617   23.5811 H   0  0  0  0  0  0  0  0  0  0  0  0
   -6.4123  -23.9445   23.6987 H   0  0  0  0  0  0  0  0  0  0  0  0
   -6.9382  -18.2803   17.6150 H   0  0  0  0  0  0  0  0  0  0  0  0
   -3.4309  -20.0936   19.6182 H   0  0  0  0  0  0  0  0  0  0  0  0
   -2.1436  -17.8964   18.6574 H   0  0  0  0  0  0  0  0  0  0  0  0
   -4.1396  -16.6049   17.2247 H   0  0  0  0  0  0  0  0  0  0  0  0
  1  2  1  0
  2  3  1  0
  3  4  1  0
  4  5  2  0
  5  6  1  0
  6  7  2  0
  7  8  1  0
  8  9  2  0
  2 10  1  0
 10 11  2  0
 10 12  1  0
  2 13  1  0
 13 14  1  0
 14 15  2  0
 15 16  1  0
 16 17  2  0
  9  4  1  0
 17 13  1  0
  1 18  1  0
  1 19  1  0
  1 20  1  0
  3 21  1  0
  3 22  1  0
  5 23  1  0
  6 24  1  0
  7 25  1  0
  8 26  1  0
 12 27  1  0
 14 28  1  0
 15 29  1  0
 16 30  1  0
M  END
>  <Energy>  (531) 
16.449178027893225

>  <compound_id>  (531) 
19099

>  <target_id>  (531) 
1

>  <reference_id>  (531) 
122

>  <inspiration_ids>  (531) 
[122, 82]

>  <energy_score>  (531) 
-31.84096604705809

>  <distance_score>  (531) 
17.20539717185992

>  <path>  (531) 
/opt/xchem-fragalysis-2/maxwin/BulkDock/SCRATCH/511024/C19099-P122/C19099-P122.minimised.mol

>  <scratch_subdir>  (531) 
/opt/xchem-fragalysis-2/maxwin/BulkDock/SCRATCH/511024/C19099-P122

>  <fragmenstein_runtime>  (531) 
24.610794067382812

>  <fragmenstein_outcome>  (531) 
too moved

>  <fragmenstein_mode>  (531) 
expansion

>  <fragmenstein_error>  (531) 


$$$$
C19099-P82
     RDKit          3D

 30 31  0  0  0  0  0  0  0  0999 V2000
   -5.2854   -8.3645   26.7176 C   0  0  0  0  0  0  0  0  0  0  0  0
   -4.0145   -9.2245   26.6129 C   0  0  0  0  0  0  0  0  0  0  0  0
   -3.8433  -10.0653   27.9691 C   0  0  0  0  0  0  0  0  0  0  0  0
   -4.7520  -11.3104   28.2928 C   0  0  0  0  0  0  0  0  0  0  0  0
   -4.2940  -12.2987   29.1813 C   0  0  0  0  0  0  0  0  0  0  0  0
   -5.1151  -13.3813   29.5448 C   0  0  0  0  0  0  0  0  0  0  0  0
   -6.3966  -13.4666   29.0286 C   0  0  0  0  0  0  0  0  0  0  0  0
   -6.7876  -12.4598   28.1631 C   0  0  0  0  0  0  0  0  0  0  0  0
   -6.0071  -11.3972   27.7894 N   0  0  0  0  0  0  0  0  0  0  0  0
   -4.1140  -10.2788   25.5329 C   0  0  0  0  0  0  0  0  0  0  0  0
   -3.4308  -11.2915   25.5270 O   0  0  0  0  0  0  0  0  0  0  0  0
   -4.9301  -10.0176   24.4946 O   0  0  0  0  0  0  0  0  0  0  0  0
   -2.8651   -8.3144   26.2306 N   0  0  0  0  0  0  0  0  0  0  0  0
   -2.7168   -7.6116   25.0364 C   0  0  0  0  0  0  0  0  0  0  0  0
   -1.5258   -6.9213   25.0905 C   0  0  0  0  0  0  0  0  0  0  0  0
   -1.0092   -7.2406   26.3531 C   0  0  0  0  0  0  0  0  0  0  0  0
   -1.7949   -8.0840   27.0422 N   0  0  0  0  0  0  0  0  0  0  0  0
   -5.2046   -7.6502   27.5450 H   0  0  0  0  0  0  0  0  0  0  0  0
   -6.1803   -8.9719   26.8813 H   0  0  0  0  0  0  0  0  0  0  0  0
   -5.4662   -7.7832   25.8060 H   0  0  0  0  0  0  0  0  0  0  0  0
   -2.8099  -10.4318   28.0016 H   0  0  0  0  0  0  0  0  0  0  0  0
   -3.9440   -9.3782   28.8198 H   0  0  0  0  0  0  0  0  0  0  0  0
   -3.2940  -12.2283   29.6014 H   0  0  0  0  0  0  0  0  0  0  0  0
   -4.7416  -14.1392   30.2276 H   0  0  0  0  0  0  0  0  0  0  0  0
   -7.0618  -14.2812   29.2835 H   0  0  0  0  0  0  0  0  0  0  0  0
   -7.7799  -12.4650   27.7191 H   0  0  0  0  0  0  0  0  0  0  0  0
   -4.8401  -10.7971   23.8832 H   0  0  0  0  0  0  0  0  0  0  0  0
   -3.4742   -7.6684   24.2655 H   0  0  0  0  0  0  0  0  0  0  0  0
   -1.1054   -6.2772   24.3314 H   0  0  0  0  0  0  0  0  0  0  0  0
   -0.0888   -6.8983   26.8084 H   0  0  0  0  0  0  0  0  0  0  0  0
  1  2  1  0
  2  3  1  0
  3  4  1  0
  4  5  2  0
  5  6  1  0
  6  7  2  0
  7  8  1  0
  8  9  2  0
  2 10  1  0
 10 11  2  0
 10 12  1  0
  2 13  1  0
 13 14  1  0
 14 15  2  0
 15 16  1  0
 16 17  2  0
  9  4  1  0
 17 13  1  0
  1 18  1  0
  1 19  1  0
  1 20  1  0
  3 21  1  0
  3 22  1  0
  5 23  1  0
  6 24  1  0
  7 25  1  0
  8 26  1  0
 12 27  1  0
 14 28  1  0
 15 29  1  0
 16 30  1  0
M  END
>  <Energy>  (532) 
13.649759971298915

>  <compound_id>  (532) 
19099

>  <target_id>  (532) 
1

>  <reference_id>  (532) 
82

>  <inspiration_ids>  (532) 
[122, 82]

>  <energy_score>  (532) 
-34.64038410365151

>  <distance_score>  (532) 
16.142337802962526

>  <path>  (532) 
/opt/xchem-fragalysis-2/maxwin/BulkDock/SCRATCH/511024/C19099-P82/C19099-P82.minimised.mol

>  <scratch_subdir>  (532) 
/opt/xchem-fragalysis-2/maxwin/BulkDock/SCRATCH/511024/C19099-P82

>  <fragmenstein_runtime>  (532) 
26.98332166671753

>  <fragmenstein_outcome>  (532) 
too moved

>  <fragmenstein_mode>  (532) 
expansion

>  <fragmenstein_error>  (532) 


$$$$
C19100-P122
     RDKit          3D

 41 42  0  0  0  0  0  0  0  0999 V2000
    7.8743  -12.1205   27.1711 C   0  0  0  0  0  0  0  0  0  0  0  0
    7.2252  -12.6024   25.8829 C   0  0  0  0  0  0  0  0  0  0  0  0
    8.5300  -12.7951   24.5159 S   0  0  0  0  0  0  0  0  0  0  0  0
    8.9524  -11.1503   23.8483 C   0  0  0  0  0  0  0  0  0  0  0  0
    9.5706  -11.0917   22.5865 C   0  0  0  0  0  0  0  0  0  0  0  0
   10.0595   -9.8749   22.0881 C   0  0  0  0  0  0  0  0  0  0  0  0
    9.9182   -8.7316   22.8582 C   0  0  0  0  0  0  0  0  0  0  0  0
    9.2824   -8.8679   24.0858 C   0  0  0  0  0  0  0  0  0  0  0  0
    8.8074  -10.0420   24.5989 N   0  0  0  0  0  0  0  0  0  0  0  0
    6.4756  -14.0185   26.1661 C   0  0  0  0  0  0  0  0  0  0  0  0
    7.0342  -15.0425   25.8731 O   0  0  0  0  0  0  0  0  0  0  0  0
    5.1543  -13.7876   26.7692 N   0  0  0  0  0  0  0  0  0  0  0  0
    4.1327  -14.6727   27.0909 C   0  0  0  0  0  0  0  0  0  0  0  0
    4.0568  -16.0794   26.9180 C   0  0  0  0  0  0  0  0  0  0  0  0
    2.8121  -16.4699   27.3729 C   0  0  0  0  0  0  0  0  0  0  0  0
    2.1978  -15.3264   27.7964 N   0  0  0  0  0  0  0  0  0  0  0  0
    0.8300  -15.1525   28.3017 C   0  0  0  0  0  0  0  0  0  0  0  0
    0.0819  -16.4836   28.5150 C   0  0  0  0  0  0  0  0  0  0  0  0
    0.0217  -14.3087   27.2988 C   0  0  0  0  0  0  0  0  0  0  0  0
    0.8785  -14.4352   29.6476 C   0  0  0  0  0  0  0  0  0  0  0  0
    0.3199  -13.3885   29.9452 O   0  0  0  0  0  0  0  0  0  0  0  0
    1.5818  -15.0967   30.5957 O   0  0  0  0  0  0  0  0  0  0  0  0
    2.9900  -14.2298   27.6384 N   0  0  0  0  0  0  0  0  0  0  0  0
    8.6109  -12.8424   27.5411 H   0  0  0  0  0  0  0  0  0  0  0  0
    7.1229  -11.9993   27.9590 H   0  0  0  0  0  0  0  0  0  0  0  0
    8.3708  -11.1544   27.0426 H   0  0  0  0  0  0  0  0  0  0  0  0
    6.4921  -11.8826   25.5232 H   0  0  0  0  0  0  0  0  0  0  0  0
    9.7008  -12.0003   22.0045 H   0  0  0  0  0  0  0  0  0  0  0  0
   10.5492   -9.8398   21.1201 H   0  0  0  0  0  0  0  0  0  0  0  0
   10.2817   -7.7674   22.5225 H   0  0  0  0  0  0  0  0  0  0  0  0
    9.1272   -8.0037   24.7274 H   0  0  0  0  0  0  0  0  0  0  0  0
    5.0417  -12.8026   26.9521 H   0  0  0  0  0  0  0  0  0  0  0  0
    4.8221  -16.7206   26.5024 H   0  0  0  0  0  0  0  0  0  0  0  0
    2.3455  -17.4433   27.4126 H   0  0  0  0  0  0  0  0  0  0  0  0
   -0.0655  -17.0176   27.5693 H   0  0  0  0  0  0  0  0  0  0  0  0
   -0.9069  -16.3124   28.9572 H   0  0  0  0  0  0  0  0  0  0  0  0
    0.6245  -17.1518   29.1941 H   0  0  0  0  0  0  0  0  0  0  0  0
    0.0003  -14.7826   26.3106 H   0  0  0  0  0  0  0  0  0  0  0  0
    0.4481  -13.3059   27.1774 H   0  0  0  0  0  0  0  0  0  0  0  0
   -1.0144  -14.1769   27.6321 H   0  0  0  0  0  0  0  0  0  0  0  0
    1.5531  -14.4996   31.3729 H   0  0  0  0  0  0  0  0  0  0  0  0
  1  2  1  0
  2  3  1  0
  3  4  1  0
  4  5  2  0
  5  6  1  0
  6  7  2  0
  7  8  1  0
  8  9  2  0
  2 10  1  0
 10 11  2  0
 10 12  1  0
 12 13  1  0
 13 14  1  0
 14 15  2  0
 15 16  1  0
 16 17  1  0
 17 18  1  0
 17 19  1  0
 17 20  1  0
 20 21  2  0
 20 22  1  0
 16 23  1  0
  9  4  1  0
 23 13  2  0
  1 24  1  0
  1 25  1  0
  1 26  1  0
  2 27  1  0
  5 28  1  0
  6 29  1  0
  7 30  1  0
  8 31  1  0
 12 32  1  0
 14 33  1  0
 15 34  1  0
 18 35  1  0
 18 36  1  0
 18 37  1  0
 19 38  1  0
 19 39  1  0
 19 40  1  0
 22 41  1  0
M  END
>  <Energy>  (533) 
-3.6837372325006745

>  <compound_id>  (533) 
19100

>  <target_id>  (533) 
1

>  <reference_id>  (533) 
122

>  <inspiration_ids>  (533) 
[122, 82]

>  <energy_score>  (533) 
-54.38918525768918

>  <distance_score>  (533) 
16.903814481544142

>  <path>  (533) 
/opt/xchem-fragalysis-2/maxwin/BulkDock/SCRATCH/511024/C19100-P122/C19100-P122.minimised.mol

>  <scratch_subdir>  (533) 
/opt/xchem-fragalysis-2/maxwin/BulkDock/SCRATCH/511024/C19100-P122

>  <fragmenstein_runtime>  (533) 
25.375948429107666

>  <fragmenstein_outcome>  (533) 
too moved

>  <fragmenstein_mode>  (533) 
expansion

>  <fragmenstein_error>  (533) 


$$$$
C19100-P82
     RDKit          3D

 41 42  0  0  0  0  0  0  0  0999 V2000
   -2.3426  -22.7577   23.2226 C   0  0  0  0  0  0  0  0  0  0  0  0
   -2.6720  -21.5243   24.0479 C   0  0  0  0  0  0  0  0  0  0  0  0
   -1.0420  -20.5443   24.3393 S   0  0  0  0  0  0  0  0  0  0  0  0
   -0.8298  -19.3321   22.9956 C   0  0  0  0  0  0  0  0  0  0  0  0
   -0.1862  -19.6853   21.8065 C   0  0  0  0  0  0  0  0  0  0  0  0
    0.0487  -18.7166   20.8320 C   0  0  0  0  0  0  0  0  0  0  0  0
   -0.3408  -17.4163   21.0892 C   0  0  0  0  0  0  0  0  0  0  0  0
   -0.8908  -17.1156   22.3207 C   0  0  0  0  0  0  0  0  0  0  0  0
   -1.1543  -18.0446   23.2695 N   0  0  0  0  0  0  0  0  0  0  0  0
   -3.3503  -21.9120   25.4657 C   0  0  0  0  0  0  0  0  0  0  0  0
   -2.7793  -21.5669   26.4667 O   0  0  0  0  0  0  0  0  0  0  0  0
   -4.6586  -22.5688   25.2856 N   0  0  0  0  0  0  0  0  0  0  0  0
   -5.6604  -22.8960   26.2175 C   0  0  0  0  0  0  0  0  0  0  0  0
   -5.6217  -22.4501   27.5140 C   0  0  0  0  0  0  0  0  0  0  0  0
   -6.9669  -22.1610   27.7734 C   0  0  0  0  0  0  0  0  0  0  0  0
   -7.8610  -22.9272   27.1669 N   0  0  0  0  0  0  0  0  0  0  0  0
   -9.5360  -23.5955   27.5778 C   0  0  0  0  0  0  0  0  0  0  0  0
  -10.4028  -24.3962   26.4757 C   0  0  0  0  0  0  0  0  0  0  0  0
   -9.4349  -24.8037   28.6922 C   0  0  0  0  0  0  0  0  0  0  0  0
  -10.7014  -22.5684   28.1206 C   0  0  0  0  0  0  0  0  0  0  0  0
  -10.8585  -22.1754   29.2662 O   0  0  0  0  0  0  0  0  0  0  0  0
  -11.6645  -22.1681   27.2623 O   0  0  0  0  0  0  0  0  0  0  0  0
   -6.9826  -23.2086   25.9378 N   0  0  0  0  0  0  0  0  0  0  0  0
   -1.6972  -23.4474   23.7779 H   0  0  0  0  0  0  0  0  0  0  0  0
   -3.2482  -23.3122   22.9577 H   0  0  0  0  0  0  0  0  0  0  0  0
   -1.8439  -22.4925   22.2845 H   0  0  0  0  0  0  0  0  0  0  0  0
   -3.3630  -20.8570   23.5225 H   0  0  0  0  0  0  0  0  0  0  0  0
    0.1331  -20.7084   21.6394 H   0  0  0  0  0  0  0  0  0  0  0  0
    0.5397  -18.9730   19.8993 H   0  0  0  0  0  0  0  0  0  0  0  0
   -0.1376  -16.6444   20.3770 H   0  0  0  0  0  0  0  0  0  0  0  0
   -1.1411  -16.0963   22.5926 H   0  0  0  0  0  0  0  0  0  0  0  0
   -4.7878  -22.7875   24.3095 H   0  0  0  0  0  0  0  0  0  0  0  0
   -4.7669  -21.9165   27.9080 H   0  0  0  0  0  0  0  0  0  0  0  0
   -7.3244  -21.1576   27.7695 H   0  0  0  0  0  0  0  0  0  0  0  0
  -10.3300  -24.0854   25.4368 H   0  0  0  0  0  0  0  0  0  0  0  0
  -11.4746  -24.3555   26.7161 H   0  0  0  0  0  0  0  0  0  0  0  0
  -10.2871  -25.4800   26.5353 H   0  0  0  0  0  0  0  0  0  0  0  0
   -8.4776  -24.8220   29.2133 H   0  0  0  0  0  0  0  0  0  0  0  0
   -9.5174  -25.8094   28.2672 H   0  0  0  0  0  0  0  0  0  0  0  0
  -10.2419  -24.7225   29.4298 H   0  0  0  0  0  0  0  0  0  0  0  0
  -11.7301  -22.4185   26.3257 H   0  0  0  0  0  0  0  0  0  0  0  0
  1  2  1  0
  2  3  1  0
  3  4  1  0
  4  5  2  0
  5  6  1  0
  6  7  2  0
  7  8  1  0
  8  9  2  0
  2 10  1  0
 10 11  2  0
 10 12  1  0
 12 13  1  0
 13 14  1  0
 14 15  2  0
 15 16  1  0
 16 17  1  0
 17 18  1  0
 17 19  1  0
 17 20  1  0
 20 21  2  0
 20 22  1  0
 16 23  1  0
  9  4  1  0
 23 13  2  0
  1 24  1  0
  1 25  1  0
  1 26  1  0
  2 27  1  0
  5 28  1  0
  6 29  1  0
  7 30  1  0
  8 31  1  0
 12 32  1  0
 14 33  1  0
 15 34  1  0
 18 35  1  0
 18 36  1  0
 18 37  1  0
 19 38  1  0
 19 39  1  0
 19 40  1  0
 22 41  1  0
M  END
>  <Energy>  (534) 
172.15003942530518

>  <compound_id>  (534) 
19100

>  <target_id>  (534) 
1

>  <reference_id>  (534) 
82

>  <inspiration_ids>  (534) 
[122, 82]

>  <energy_score>  (534) 
121.44459140011526

>  <distance_score>  (534) 
14.493483041806266

>  <path>  (534) 
/opt/xchem-fragalysis-2/maxwin/BulkDock/SCRATCH/511024/C19100-P82/C19100-P82.minimised.mol

>  <scratch_subdir>  (534) 
/opt/xchem-fragalysis-2/maxwin/BulkDock/SCRATCH/511024/C19100-P82

>  <fragmenstein_runtime>  (534) 
21.384931802749634

>  <fragmenstein_outcome>  (534) 
too moved

>  <fragmenstein_mode>  (534) 
expansion

>  <fragmenstein_error>  (534) 


$$$$
C19101-P122
     RDKit          3D

 40 41  0  0  0  0  0  0  0  0999 V2000
    4.0184  -13.1976   18.0553 C   0  0  0  0  0  0  0  0  0  0  0  0
    3.4550  -14.6216   17.6656 C   0  0  0  0  0  0  0  0  0  0  0  0
    1.8931  -15.3302   18.5875 C   0  0  0  0  0  0  0  0  0  0  0  0
    0.4850  -16.1047   19.9706 C   0  0  0  0  0  0  0  0  0  0  0  0
   -1.2409  -15.7835   19.5355 C   0  0  0  0  0  0  0  0  0  0  0  0
   -2.2941  -16.6467   19.4132 C   0  0  0  0  0  0  0  0  0  0  0  0
   -2.0779  -17.7083   20.1071 C   0  0  0  0  0  0  0  0  0  0  0  0
   -0.9581  -17.6417   20.9443 C   0  0  0  0  0  0  0  0  0  0  0  0
    0.3261  -17.0875   20.7746 N   0  0  0  0  0  0  0  0  0  0  0  0
    2.7357  -14.5332   16.2732 C   0  0  0  0  0  0  0  0  0  0  0  0
    2.4058  -15.4709   15.5596 O   0  0  0  0  0  0  0  0  0  0  0  0
    2.4040  -13.2873   15.8749 O   0  0  0  0  0  0  0  0  0  0  0  0
    4.8523  -15.0917   17.2305 N   0  0  0  0  0  0  0  0  0  0  0  0
    5.9977  -15.2839   17.9983 C   0  0  0  0  0  0  0  0  0  0  0  0
    7.1032  -14.8660   17.2806 C   0  0  0  0  0  0  0  0  0  0  0  0
    8.5233  -14.8197   17.7192 C   0  0  0  0  0  0  0  0  0  0  0  0
    8.7899  -13.6705   18.6868 C   0  0  0  0  0  0  0  0  0  0  0  0
   10.2303  -13.6683   19.1751 C   0  0  0  0  0  0  0  0  0  0  0  0
   10.2821  -12.9798   20.4213 O   0  0  0  0  0  0  0  0  0  0  0  0
    6.5816  -14.5415   16.0223 C   0  0  0  0  0  0  0  0  0  0  0  0
    5.2657  -14.7362   15.9485 N   0  0  0  0  0  0  0  0  0  0  0  0
    4.4220  -13.1873   19.0700 H   0  0  0  0  0  0  0  0  0  0  0  0
    3.4138  -12.3289   17.8780 H   0  0  0  0  0  0  0  0  0  0  0  0
    4.8734  -12.8648   17.4463 H   0  0  0  0  0  0  0  0  0  0  0  0
    2.3966  -14.8625   19.4603 H   0  0  0  0  0  0  0  0  0  0  0  0
    1.3404  -14.5387   18.0312 H   0  0  0  0  0  0  0  0  0  0  0  0
   -1.4161  -14.9707   18.8103 H   0  0  0  0  0  0  0  0  0  0  0  0
   -3.0897  -16.6674   18.6983 H   0  0  0  0  0  0  0  0  0  0  0  0
   -2.7351  -18.5422   19.9233 H   0  0  0  0  0  0  0  0  0  0  0  0
   -0.8774  -18.3761   21.7111 H   0  0  0  0  0  0  0  0  0  0  0  0
    2.1004  -13.4367   14.9508 H   0  0  0  0  0  0  0  0  0  0  0  0
    5.9157  -15.6741   18.9940 H   0  0  0  0  0  0  0  0  0  0  0  0
    8.7742  -15.7748   18.1980 H   0  0  0  0  0  0  0  0  0  0  0  0
    9.1799  -14.7244   16.8455 H   0  0  0  0  0  0  0  0  0  0  0  0
    8.1071  -13.7249   19.5404 H   0  0  0  0  0  0  0  0  0  0  0  0
    8.5698  -12.7072   18.2082 H   0  0  0  0  0  0  0  0  0  0  0  0
   10.6075  -14.6822   19.3391 H   0  0  0  0  0  0  0  0  0  0  0  0
   10.8813  -13.1614   18.4555 H   0  0  0  0  0  0  0  0  0  0  0  0
   11.2213  -12.7935   20.6015 H   0  0  0  0  0  0  0  0  0  0  0  0
    7.1056  -14.1945   15.1410 H   0  0  0  0  0  0  0  0  0  0  0  0
  1  2  1  0
  2  3  1  0
  3  4  1  0
  4  5  2  0
  5  6  1  0
  6  7  2  0
  7  8  1  0
  8  9  2  0
  2 10  1  0
 10 11  2  0
 10 12  1  0
  2 13  1  0
 13 14  1  0
 14 15  2  0
 15 16  1  0
 16 17  1  0
 17 18  1  0
 18 19  1  0
 15 20  1  0
 20 21  2  0
  9  4  1  0
 21 13  1  0
  1 22  1  0
  1 23  1  0
  1 24  1  0
  3 25  1  0
  3 26  1  0
  5 27  1  0
  6 28  1  0
  7 29  1  0
  8 30  1  0
 12 31  1  0
 14 32  1  0
 16 33  1  0
 16 34  1  0
 17 35  1  0
 17 36  1  0
 18 37  1  0
 18 38  1  0
 19 39  1  0
 20 40  1  0
M  END
>  <Energy>  (535) 
393.78608420451724

>  <compound_id>  (535) 
19101

>  <target_id>  (535) 
1

>  <reference_id>  (535) 
122

>  <inspiration_ids>  (535) 
[122, 82]

>  <energy_score>  (535) 
328.0310437435845

>  <distance_score>  (535) 
16.244595095557283

>  <path>  (535) 
/opt/xchem-fragalysis-2/maxwin/BulkDock/SCRATCH/511024/C19101-P122/C19101-P122.minimised.mol

>  <scratch_subdir>  (535) 
/opt/xchem-fragalysis-2/maxwin/BulkDock/SCRATCH/511024/C19101-P122

>  <fragmenstein_runtime>  (535) 
37.625985622406006

>  <fragmenstein_outcome>  (535) 
too moved

>  <fragmenstein_mode>  (535) 
expansion

>  <fragmenstein_error>  (535) 


$$$$
C19101-P82
     RDKit          3D

 40 41  0  0  0  0  0  0  0  0999 V2000
    4.0846  -13.1333   18.9655 C   0  0  0  0  0  0  0  0  0  0  0  0
    4.2979  -13.1508   20.8665 C   0  0  0  0  0  0  0  0  0  0  0  0
    3.2090  -14.3056   22.3953 C   0  0  0  0  0  0  0  0  0  0  0  0
    2.0353  -15.4840   23.5525 C   0  0  0  0  0  0  0  0  0  0  0  0
    2.3768  -17.4095   24.2933 C   0  0  0  0  0  0  0  0  0  0  0  0
    0.8391  -18.5420   24.7049 C   0  0  0  0  0  0  0  0  0  0  0  0
   -0.6787  -17.6039   25.4473 C   0  0  0  0  0  0  0  0  0  0  0  0
   -1.0278  -15.7374   24.5910 C   0  0  0  0  0  0  0  0  0  0  0  0
    0.4469  -14.5856   24.1573 N   0  0  0  0  0  0  0  0  0  0  0  0
    5.2923  -11.4764   21.1357 C   0  0  0  0  0  0  0  0  0  0  0  0
    6.0101  -10.8356   20.3456 O   0  0  0  0  0  0  0  0  0  0  0  0
    5.1550  -10.7669   22.3444 O   0  0  0  0  0  0  0  0  0  0  0  0
    5.9221  -13.3860   20.0183 N   0  0  0  0  0  0  0  0  0  0  0  0
    6.3546  -14.1284   18.8086 C   0  0  0  0  0  0  0  0  0  0  0  0
    7.5303  -13.5703   18.3412 C   0  0  0  0  0  0  0  0  0  0  0  0
    8.2218  -13.8301   17.0495 C   0  0  0  0  0  0  0  0  0  0  0  0
    7.6998  -12.9766   15.8941 C   0  0  0  0  0  0  0  0  0  0  0  0
    7.9483  -11.4841   16.0821 C   0  0  0  0  0  0  0  0  0  0  0  0
    7.5939  -10.8089   14.8809 O   0  0  0  0  0  0  0  0  0  0  0  0
    7.9581  -12.7528   19.3886 C   0  0  0  0  0  0  0  0  0  0  0  0
    7.1538  -12.8033   20.4499 N   0  0  0  0  0  0  0  0  0  0  0  0
    3.5019  -12.3659   18.4092 H   0  0  0  0  0  0  0  0  0  0  0  0
    3.7682  -14.0888   18.5200 H   0  0  0  0  0  0  0  0  0  0  0  0
    4.9241  -12.6809   18.4103 H   0  0  0  0  0  0  0  0  0  0  0  0
    3.8725  -15.0682   22.9317 H   0  0  0  0  0  0  0  0  0  0  0  0
    3.1242  -13.4699   23.1689 H   0  0  0  0  0  0  0  0  0  0  0  0
    3.2643  -17.9289   23.9975 H   0  0  0  0  0  0  0  0  0  0  0  0
    0.8652  -19.5237   24.3080 H   0  0  0  0  0  0  0  0  0  0  0  0
   -1.5751  -18.1246   25.8571 H   0  0  0  0  0  0  0  0  0  0  0  0
   -1.9722  -15.2212   24.7991 H   0  0  0  0  0  0  0  0  0  0  0  0
    5.7778  -10.0226   22.1813 H   0  0  0  0  0  0  0  0  0  0  0  0
    5.7010  -14.8844   18.3943 H   0  0  0  0  0  0  0  0  0  0  0  0
    8.0984  -14.8888   16.7883 H   0  0  0  0  0  0  0  0  0  0  0  0
    9.3005  -13.6679   17.1680 H   0  0  0  0  0  0  0  0  0  0  0  0
    6.6260  -13.1469   15.7433 H   0  0  0  0  0  0  0  0  0  0  0  0
    8.1835  -13.3036   14.9647 H   0  0  0  0  0  0  0  0  0  0  0  0
    7.3389  -11.0792   16.8957 H   0  0  0  0  0  0  0  0  0  0  0  0
    9.0038  -11.2823   16.2896 H   0  0  0  0  0  0  0  0  0  0  0  0
    7.6634   -9.8549   15.0587 H   0  0  0  0  0  0  0  0  0  0  0  0
    8.8624  -12.1619   19.4563 H   0  0  0  0  0  0  0  0  0  0  0  0
  1  2  1  0
  2  3  1  0
  3  4  1  0
  4  5  2  0
  5  6  1  0
  6  7  2  0
  7  8  1  0
  8  9  2  0
  2 10  1  0
 10 11  2  0
 10 12  1  0
  2 13  1  0
 13 14  1  0
 14 15  2  0
 15 16  1  0
 16 17  1  0
 17 18  1  0
 18 19  1  0
 15 20  1  0
 20 21  2  0
  9  4  1  0
 21 13  1  0
  1 22  1  0
  1 23  1  0
  1 24  1  0
  3 25  1  0
  3 26  1  0
  5 27  1  0
  6 28  1  0
  7 29  1  0
  8 30  1  0
 12 31  1  0
 14 32  1  0
 16 33  1  0
 16 34  1  0
 17 35  1  0
 17 36  1  0
 18 37  1  0
 18 38  1  0
 19 39  1  0
 20 40  1  0
M  END
>  <Energy>  (536) 
1269.7715555300194

>  <compound_id>  (536) 
19101

>  <target_id>  (536) 
1

>  <reference_id>  (536) 
82

>  <inspiration_ids>  (536) 
[122, 82]

>  <energy_score>  (536) 
1204.0165150691178

>  <distance_score>  (536) 
15.125450466493291

>  <path>  (536) 
/opt/xchem-fragalysis-2/maxwin/BulkDock/SCRATCH/511024/C19101-P82/C19101-P82.minimised.mol

>  <scratch_subdir>  (536) 
/opt/xchem-fragalysis-2/maxwin/BulkDock/SCRATCH/511024/C19101-P82

>  <fragmenstein_runtime>  (536) 
23.7686824798584

>  <fragmenstein_outcome>  (536) 
too moved

>  <fragmenstein_mode>  (536) 
expansion

>  <fragmenstein_error>  (536) 


$$$$
C19103-P122
     RDKit          3D

 41 42  0  0  0  0  0  0  0  0999 V2000
    6.5825  -11.1365   27.0737 C   0  0  0  0  0  0  0  0  0  0  0  0
    5.5770  -10.6764   26.0166 C   0  0  0  0  0  0  0  0  0  0  0  0
    5.7150   -9.2488   25.7813 O   0  0  0  0  0  0  0  0  0  0  0  0
    6.8143   -8.7390   25.0854 C   0  0  0  0  0  0  0  0  0  0  0  0
    6.8025   -7.3668   24.8153 C   0  0  0  0  0  0  0  0  0  0  0  0
    7.8756   -6.7815   24.1291 C   0  0  0  0  0  0  0  0  0  0  0  0
    8.9396   -7.5791   23.7339 C   0  0  0  0  0  0  0  0  0  0  0  0
    8.8689   -8.9325   24.0383 C   0  0  0  0  0  0  0  0  0  0  0  0
    7.8291   -9.5352   24.6901 N   0  0  0  0  0  0  0  0  0  0  0  0
    4.0961  -11.0298   26.5856 C   0  0  0  0  0  0  0  0  0  0  0  0
    3.4198  -10.1122   26.9731 O   0  0  0  0  0  0  0  0  0  0  0  0
    3.8365  -12.4748   26.5835 N   0  0  0  0  0  0  0  0  0  0  0  0
    2.7010  -13.1994   26.9428 C   0  0  0  0  0  0  0  0  0  0  0  0
    2.5453  -14.6152   26.8663 C   0  0  0  0  0  0  0  0  0  0  0  0
    1.2661  -14.9024   27.2979 C   0  0  0  0  0  0  0  0  0  0  0  0
    0.6883  -13.6915   27.5540 N   0  0  0  0  0  0  0  0  0  0  0  0
   -0.6824  -13.4081   28.0192 C   0  0  0  0  0  0  0  0  0  0  0  0
   -1.6731  -14.4600   27.4760 C   0  0  0  0  0  0  0  0  0  0  0  0
   -0.7018  -13.4344   29.5556 C   0  0  0  0  0  0  0  0  0  0  0  0
   -1.1974  -12.0206   27.5832 C   0  0  0  0  0  0  0  0  0  0  0  0
   -2.3861  -11.7715   27.3985 O   0  0  0  0  0  0  0  0  0  0  0  0
   -0.2876  -11.0222   27.4774 O   0  0  0  0  0  0  0  0  0  0  0  0
    1.5826  -12.6669   27.4523 N   0  0  0  0  0  0  0  0  0  0  0  0
    6.4437  -10.5711   28.0023 H   0  0  0  0  0  0  0  0  0  0  0  0
    6.4729  -12.1996   27.3075 H   0  0  0  0  0  0  0  0  0  0  0  0
    7.6158  -10.9725   26.7579 H   0  0  0  0  0  0  0  0  0  0  0  0
    5.7032  -11.2086   25.0682 H   0  0  0  0  0  0  0  0  0  0  0  0
    5.9594   -6.7626   25.1350 H   0  0  0  0  0  0  0  0  0  0  0  0
    7.8706   -5.7170   23.9167 H   0  0  0  0  0  0  0  0  0  0  0  0
    9.7929   -7.1671   23.2076 H   0  0  0  0  0  0  0  0  0  0  0  0
    9.6720   -9.6061   23.7493 H   0  0  0  0  0  0  0  0  0  0  0  0
    4.6606  -12.9584   26.2567 H   0  0  0  0  0  0  0  0  0  0  0  0
    3.2765  -15.3349   26.5280 H   0  0  0  0  0  0  0  0  0  0  0  0
    0.7404  -15.8414   27.3952 H   0  0  0  0  0  0  0  0  0  0  0  0
   -1.4456  -15.4668   27.8429 H   0  0  0  0  0  0  0  0  0  0  0  0
   -1.6560  -14.4874   26.3799 H   0  0  0  0  0  0  0  0  0  0  0  0
   -2.7031  -14.2414   27.7818 H   0  0  0  0  0  0  0  0  0  0  0  0
   -0.0273  -12.6785   29.9756 H   0  0  0  0  0  0  0  0  0  0  0  0
   -0.3862  -14.4097   29.9437 H   0  0  0  0  0  0  0  0  0  0  0  0
   -1.7051  -13.2250   29.9445 H   0  0  0  0  0  0  0  0  0  0  0  0
    0.6456  -11.3610   27.5655 H   0  0  0  0  0  0  0  0  0  0  0  0
  1  2  1  0
  2  3  1  0
  3  4  1  0
  4  5  2  0
  5  6  1  0
  6  7  2  0
  7  8  1  0
  8  9  2  0
  2 10  1  0
 10 11  2  0
 10 12  1  0
 12 13  1  0
 13 14  1  0
 14 15  2  0
 15 16  1  0
 16 17  1  0
 17 18  1  0
 17 19  1  0
 17 20  1  0
 20 21  2  0
 20 22  1  0
 16 23  1  0
  9  4  1  0
 23 13  2  0
  1 24  1  0
  1 25  1  0
  1 26  1  0
  2 27  1  0
  5 28  1  0
  6 29  1  0
  7 30  1  0
  8 31  1  0
 12 32  1  0
 14 33  1  0
 15 34  1  0
 18 35  1  0
 18 36  1  0
 18 37  1  0
 19 38  1  0
 19 39  1  0
 19 40  1  0
 22 41  1  0
M  END
>  <Energy>  (537) 
-0.23115876218864795

>  <compound_id>  (537) 
19103

>  <target_id>  (537) 
1

>  <reference_id>  (537) 
122

>  <inspiration_ids>  (537) 
[122, 82]

>  <energy_score>  (537) 
-58.88831783260122

>  <distance_score>  (537) 
16.759123478594166

>  <path>  (537) 
/opt/xchem-fragalysis-2/maxwin/BulkDock/SCRATCH/511024/C19103-P122/C19103-P122.minimised.mol

>  <scratch_subdir>  (537) 
/opt/xchem-fragalysis-2/maxwin/BulkDock/SCRATCH/511024/C19103-P122

>  <fragmenstein_runtime>  (537) 
35.7990996837616

>  <fragmenstein_outcome>  (537) 
too moved

>  <fragmenstein_mode>  (537) 
expansion

>  <fragmenstein_error>  (537) 


$$$$
C19103-P82
     RDKit          3D

 41 42  0  0  0  0  0  0  0  0999 V2000
   -2.8785   -7.3893   19.5357 C   0  0  0  0  0  0  0  0  0  0  0  0
   -1.8397   -8.0176   20.4664 C   0  0  0  0  0  0  0  0  0  0  0  0
   -0.8382   -7.0159   20.7804 O   0  0  0  0  0  0  0  0  0  0  0  0
    0.1236   -6.5633   19.8958 C   0  0  0  0  0  0  0  0  0  0  0  0
    0.4893   -7.1535   18.6937 C   0  0  0  0  0  0  0  0  0  0  0  0
    1.5248   -6.5911   17.9193 C   0  0  0  0  0  0  0  0  0  0  0  0
    2.1780   -5.4471   18.3558 C   0  0  0  0  0  0  0  0  0  0  0  0
    1.7562   -4.9121   19.5557 C   0  0  0  0  0  0  0  0  0  0  0  0
    0.7544   -5.4372   20.3156 N   0  0  0  0  0  0  0  0  0  0  0  0
   -2.6204   -8.5976   21.7869 C   0  0  0  0  0  0  0  0  0  0  0  0
   -2.3545   -8.1148   22.8562 O   0  0  0  0  0  0  0  0  0  0  0  0
   -3.5474   -9.6846   21.4308 N   0  0  0  0  0  0  0  0  0  0  0  0
   -4.4495  -10.4060   22.2083 C   0  0  0  0  0  0  0  0  0  0  0  0
   -4.7622  -10.2693   23.5897 C   0  0  0  0  0  0  0  0  0  0  0  0
   -5.6073  -11.3128   23.9096 C   0  0  0  0  0  0  0  0  0  0  0  0
   -5.7691  -12.0262   22.7532 N   0  0  0  0  0  0  0  0  0  0  0  0
   -6.6304  -13.1987   22.5395 C   0  0  0  0  0  0  0  0  0  0  0  0
   -8.0741  -12.7151   22.3168 C   0  0  0  0  0  0  0  0  0  0  0  0
   -6.1965  -14.0341   21.3177 C   0  0  0  0  0  0  0  0  0  0  0  0
   -6.5833  -14.1169   23.7572 C   0  0  0  0  0  0  0  0  0  0  0  0
   -7.5235  -14.4187   24.4776 O   0  0  0  0  0  0  0  0  0  0  0  0
   -5.3592  -14.6236   24.0204 O   0  0  0  0  0  0  0  0  0  0  0  0
   -5.1184  -11.4530   21.7004 N   0  0  0  0  0  0  0  0  0  0  0  0
   -3.3740   -6.5477   20.0328 H   0  0  0  0  0  0  0  0  0  0  0  0
   -2.4160   -6.9921   18.6271 H   0  0  0  0  0  0  0  0  0  0  0  0
   -3.6501   -8.1025   19.2332 H   0  0  0  0  0  0  0  0  0  0  0  0
   -1.3613   -8.8791   19.9997 H   0  0  0  0  0  0  0  0  0  0  0  0
    0.0136   -8.0632   18.3530 H   0  0  0  0  0  0  0  0  0  0  0  0
    1.8230   -7.0706   16.9911 H   0  0  0  0  0  0  0  0  0  0  0  0
    2.9869   -4.9998   17.7931 H   0  0  0  0  0  0  0  0  0  0  0  0
    2.2271   -4.0273   19.9745 H   0  0  0  0  0  0  0  0  0  0  0  0
   -3.4580   -9.8868   20.4451 H   0  0  0  0  0  0  0  0  0  0  0  0
   -4.3905   -9.5126   24.2680 H   0  0  0  0  0  0  0  0  0  0  0  0
   -6.0853  -11.5881   24.8401 H   0  0  0  0  0  0  0  0  0  0  0  0
   -8.1433  -12.0546   21.4446 H   0  0  0  0  0  0  0  0  0  0  0  0
   -8.4482  -12.1550   23.1823 H   0  0  0  0  0  0  0  0  0  0  0  0
   -8.7561  -13.5581   22.1556 H   0  0  0  0  0  0  0  0  0  0  0  0
   -6.3226  -13.4781   20.3815 H   0  0  0  0  0  0  0  0  0  0  0  0
   -6.7893  -14.9531   21.2389 H   0  0  0  0  0  0  0  0  0  0  0  0
   -5.1433  -14.3313   21.3846 H   0  0  0  0  0  0  0  0  0  0  0  0
   -5.4808  -15.1840   24.8180 H   0  0  0  0  0  0  0  0  0  0  0  0
  1  2  1  0
  2  3  1  0
  3  4  1  0
  4  5  2  0
  5  6  1  0
  6  7  2  0
  7  8  1  0
  8  9  2  0
  2 10  1  0
 10 11  2  0
 10 12  1  0
 12 13  1  0
 13 14  1  0
 14 15  2  0
 15 16  1  0
 16 17  1  0
 17 18  1  0
 17 19  1  0
 17 20  1  0
 20 21  2  0
 20 22  1  0
 16 23  1  0
  9  4  1  0
 23 13  2  0
  1 24  1  0
  1 25  1  0
  1 26  1  0
  2 27  1  0
  5 28  1  0
  6 29  1  0
  7 30  1  0
  8 31  1  0
 12 32  1  0
 14 33  1  0
 15 34  1  0
 18 35  1  0
 18 36  1  0
 18 37  1  0
 19 38  1  0
 19 39  1  0
 19 40  1  0
 22 41  1  0
M  END
>  <Energy>  (538) 
6.0933912592945028

>  <compound_id>  (538) 
19103

>  <target_id>  (538) 
1

>  <reference_id>  (538) 
82

>  <inspiration_ids>  (538) 
[122, 82]

>  <energy_score>  (538) 
-52.56376781111658

>  <distance_score>  (538) 
16.433080430274778

>  <path>  (538) 
/opt/xchem-fragalysis-2/maxwin/BulkDock/SCRATCH/511024/C19103-P82/C19103-P82.minimised.mol

>  <scratch_subdir>  (538) 
/opt/xchem-fragalysis-2/maxwin/BulkDock/SCRATCH/511024/C19103-P82

>  <fragmenstein_runtime>  (538) 
30.217068433761597

>  <fragmenstein_outcome>  (538) 
too moved

>  <fragmenstein_mode>  (538) 
expansion

>  <fragmenstein_error>  (538) 


$$$$
C24282-P122
     RDKit          3D

 41 42  0  0  0  0  0  0  0  0999 V2000
   -0.1680   -7.9472   21.3339 C   0  0  0  0  0  0  0  0  0  0  0  0
   -1.0339   -7.8842   20.1148 C   0  0  0  0  0  0  0  0  0  0  0  0
   -0.7048   -7.3132   18.9283 C   0  0  0  0  0  0  0  0  0  0  0  0
    0.5822   -6.6597   18.4833 C   0  0  0  0  0  0  0  0  0  0  0  0
    1.1425   -6.9873   17.2408 C   0  0  0  0  0  0  0  0  0  0  0  0
    2.2819   -6.3307   16.7539 C   0  0  0  0  0  0  0  0  0  0  0  0
    2.8539   -5.3431   17.5275 C   0  0  0  0  0  0  0  0  0  0  0  0
    2.3598   -4.9770   18.7225 N   0  0  0  0  0  0  0  0  0  0  0  0
    1.2381   -5.6286   19.1597 C   0  0  0  0  0  0  0  0  0  0  0  0
   -2.4399   -8.4043   20.4497 C   0  0  0  0  0  0  0  0  0  0  0  0
   -3.2106   -7.5986   20.8934 O   0  0  0  0  0  0  0  0  0  0  0  0
   -2.5716   -9.8300   20.2565 N   0  0  0  0  0  0  0  0  0  0  0  0
   -3.5928  -10.7090   20.6106 C   0  0  0  0  0  0  0  0  0  0  0  0
   -3.8165  -12.0128   20.0808 C   0  0  0  0  0  0  0  0  0  0  0  0
   -4.9267  -12.5208   20.7285 C   0  0  0  0  0  0  0  0  0  0  0  0
   -5.2677  -11.5823   21.6655 N   0  0  0  0  0  0  0  0  0  0  0  0
   -6.4166  -11.6143   22.5880 C   0  0  0  0  0  0  0  0  0  0  0  0
   -6.3234  -10.5151   23.6664 C   0  0  0  0  0  0  0  0  0  0  0  0
   -7.7038  -11.4170   21.7692 C   0  0  0  0  0  0  0  0  0  0  0  0
   -6.4480  -12.9468   23.3355 C   0  0  0  0  0  0  0  0  0  0  0  0
   -5.5266  -13.7321   23.4982 O   0  0  0  0  0  0  0  0  0  0  0  0
   -7.6397  -13.2217   23.9134 O   0  0  0  0  0  0  0  0  0  0  0  0
   -4.4789  -10.4798   21.5918 N   0  0  0  0  0  0  0  0  0  0  0  0
   -0.7607   -7.8830   22.2530 H   0  0  0  0  0  0  0  0  0  0  0  0
    0.5341   -7.1178   21.3746 H   0  0  0  0  0  0  0  0  0  0  0  0
    0.3795   -8.8908   21.3529 H   0  0  0  0  0  0  0  0  0  0  0  0
   -1.4656   -7.3083   18.1475 H   0  0  0  0  0  0  0  0  0  0  0  0
    0.6760   -7.7521   16.6262 H   0  0  0  0  0  0  0  0  0  0  0  0
    2.6836   -6.5776   15.7787 H   0  0  0  0  0  0  0  0  0  0  0  0
    3.7207   -4.7929   17.1864 H   0  0  0  0  0  0  0  0  0  0  0  0
    0.8604   -5.2556   20.1088 H   0  0  0  0  0  0  0  0  0  0  0  0
   -1.7437  -10.1782   19.7760 H   0  0  0  0  0  0  0  0  0  0  0  0
   -3.2577  -12.4995   19.2942 H   0  0  0  0  0  0  0  0  0  0  0  0
   -5.4587  -13.4557   20.6196 H   0  0  0  0  0  0  0  0  0  0  0  0
   -7.1603  -10.5762   24.3720 H   0  0  0  0  0  0  0  0  0  0  0  0
   -5.4007  -10.6103   24.2518 H   0  0  0  0  0  0  0  0  0  0  0  0
   -6.3412   -9.5117   23.2255 H   0  0  0  0  0  0  0  0  0  0  0  0
   -7.8748  -12.2563   21.0847 H   0  0  0  0  0  0  0  0  0  0  0  0
   -8.5868  -11.3410   22.4139 H   0  0  0  0  0  0  0  0  0  0  0  0
   -7.6549  -10.5020   21.1671 H   0  0  0  0  0  0  0  0  0  0  0  0
   -7.4825  -14.0604   24.3993 H   0  0  0  0  0  0  0  0  0  0  0  0
  1  2  1  0
  2  3  2  3
  3  4  1  0
  4  5  2  0
  5  6  1  0
  6  7  2  0
  7  8  1  0
  8  9  2  0
  2 10  1  0
 10 11  2  0
 10 12  1  0
 12 13  1  0
 13 14  1  0
 14 15  2  0
 15 16  1  0
 16 17  1  0
 17 18  1  0
 17 19  1  0
 17 20  1  0
 20 21  2  0
 20 22  1  0
 16 23  1  0
  9  4  1  0
 23 13  2  0
  1 24  1  0
  1 25  1  0
  1 26  1  0
  3 27  1  0
  5 28  1  0
  6 29  1  0
  7 30  1  0
  9 31  1  0
 12 32  1  0
 14 33  1  0
 15 34  1  0
 18 35  1  0
 18 36  1  0
 18 37  1  0
 19 38  1  0
 19 39  1  0
 19 40  1  0
 22 41  1  0
M  END
>  <Energy>  (539) 
11.600348588741438

>  <compound_id>  (539) 
24282

>  <target_id>  (539) 
1

>  <reference_id>  (539) 
122

>  <inspiration_ids>  (539) 
[122, 82]

>  <energy_score>  (539) 
-62.35755366731996

>  <distance_score>  (539) 
16.93343063500429

>  <path>  (539) 
/opt/xchem-fragalysis-2/maxwin/BulkDock/SCRATCH/511024/C24282-P122/C24282-P122.minimised.mol

>  <scratch_subdir>  (539) 
/opt/xchem-fragalysis-2/maxwin/BulkDock/SCRATCH/511024/C24282-P122

>  <fragmenstein_runtime>  (539) 
33.441354751586914

>  <fragmenstein_outcome>  (539) 
too moved

>  <fragmenstein_mode>  (539) 
expansion

>  <fragmenstein_error>  (539) 


$$$$
C24282-P82
     RDKit          3D

 41 42  0  0  0  0  0  0  0  0999 V2000
  -12.1825  -21.2774   33.2956 C   0  0  0  0  0  0  0  0  0  0  0  0
  -12.8716  -22.0368   32.2210 C   0  0  0  0  0  0  0  0  0  0  0  0
  -12.7067  -22.3980   30.9335 C   0  0  0  0  0  0  0  0  0  0  0  0
  -11.7512  -21.9642   29.9002 C   0  0  0  0  0  0  0  0  0  0  0  0
  -11.7947  -22.4852   28.5893 C   0  0  0  0  0  0  0  0  0  0  0  0
  -10.9781  -22.1922   27.6029 C   0  0  0  0  0  0  0  0  0  0  0  0
  -10.1654  -21.3101   28.0987 C   0  0  0  0  0  0  0  0  0  0  0  0
  -10.2329  -20.6189   29.2912 N   0  0  0  0  0  0  0  0  0  0  0  0
  -10.9041  -21.0376   30.2429 C   0  0  0  0  0  0  0  0  0  0  0  0
  -14.2659  -22.2713   32.6164 C   0  0  0  0  0  0  0  0  0  0  0  0
  -15.1288  -21.5414   32.3468 O   0  0  0  0  0  0  0  0  0  0  0  0
  -14.2871  -23.5865   33.3817 N   0  0  0  0  0  0  0  0  0  0  0  0
  -15.3077  -24.2885   33.8659 C   0  0  0  0  0  0  0  0  0  0  0  0
  -16.6318  -23.9141   33.6967 C   0  0  0  0  0  0  0  0  0  0  0  0
  -17.3284  -24.9496   34.2412 C   0  0  0  0  0  0  0  0  0  0  0  0
  -16.4120  -25.8068   34.7877 N   0  0  0  0  0  0  0  0  0  0  0  0
  -16.7445  -26.9881   35.6032 C   0  0  0  0  0  0  0  0  0  0  0  0
  -15.6583  -27.2947   36.6354 C   0  0  0  0  0  0  0  0  0  0  0  0
  -16.9721  -28.1835   34.6631 C   0  0  0  0  0  0  0  0  0  0  0  0
  -17.9895  -26.7169   36.4571 C   0  0  0  0  0  0  0  0  0  0  0  0
  -18.2667  -25.6874   37.0559 O   0  0  0  0  0  0  0  0  0  0  0  0
  -18.8111  -27.7812   36.6039 O   0  0  0  0  0  0  0  0  0  0  0  0
  -15.1500  -25.4858   34.4272 N   0  0  0  0  0  0  0  0  0  0  0  0
  -12.8609  -20.5842   33.8068 H   0  0  0  0  0  0  0  0  0  0  0  0
  -11.8646  -21.9996   34.0481 H   0  0  0  0  0  0  0  0  0  0  0  0
  -11.3264  -20.6886   32.9926 H   0  0  0  0  0  0  0  0  0  0  0  0
  -13.4824  -23.0358   30.5304 H   0  0  0  0  0  0  0  0  0  0  0  0
  -12.5462  -23.2504   28.3905 H   0  0  0  0  0  0  0  0  0  0  0  0
  -11.1392  -22.6853   26.6714 H   0  0  0  0  0  0  0  0  0  0  0  0
   -9.4909  -20.7561   27.5152 H   0  0  0  0  0  0  0  0  0  0  0  0
  -10.7424  -20.6780   31.2335 H   0  0  0  0  0  0  0  0  0  0  0  0
  -13.3667  -24.0024   33.3619 H   0  0  0  0  0  0  0  0  0  0  0  0
  -17.0372  -23.0424   33.2049 H   0  0  0  0  0  0  0  0  0  0  0  0
  -18.3936  -25.1134   34.3208 H   0  0  0  0  0  0  0  0  0  0  0  0
  -15.5085  -26.4553   37.3250 H   0  0  0  0  0  0  0  0  0  0  0  0
  -15.9145  -28.1718   37.2411 H   0  0  0  0  0  0  0  0  0  0  0  0
  -14.7064  -27.4913   36.1525 H   0  0  0  0  0  0  0  0  0  0  0  0
  -16.1372  -28.3310   33.9736 H   0  0  0  0  0  0  0  0  0  0  0  0
  -17.1061  -29.1171   35.2213 H   0  0  0  0  0  0  0  0  0  0  0  0
  -17.8693  -28.0370   34.0493 H   0  0  0  0  0  0  0  0  0  0  0  0
  -19.5116  -27.4536   37.2083 H   0  0  0  0  0  0  0  0  0  0  0  0
  1  2  1  0
  2  3  2  3
  3  4  1  0
  4  5  2  0
  5  6  1  0
  6  7  2  0
  7  8  1  0
  8  9  2  0
  2 10  1  0
 10 11  2  0
 10 12  1  0
 12 13  1  0
 13 14  1  0
 14 15  2  0
 15 16  1  0
 16 17  1  0
 17 18  1  0
 17 19  1  0
 17 20  1  0
 20 21  2  0
 20 22  1  0
 16 23  1  0
  9  4  1  0
 23 13  2  0
  1 24  1  0
  1 25  1  0
  1 26  1  0
  3 27  1  0
  5 28  1  0
  6 29  1  0
  7 30  1  0
  9 31  1  0
 12 32  1  0
 14 33  1  0
 15 34  1  0
 18 35  1  0
 18 36  1  0
 18 37  1  0
 19 38  1  0
 19 39  1  0
 19 40  1  0
 22 41  1  0
M  END
>  <Energy>  (540) 
54.827340219885158

>  <compound_id>  (540) 
24282

>  <target_id>  (540) 
1

>  <reference_id>  (540) 
82

>  <inspiration_ids>  (540) 
[122, 82]

>  <energy_score>  (540) 
1.3677276403843734

>  <distance_score>  (540) 
20.256294132803408

>  <path>  (540) 
/opt/xchem-fragalysis-2/maxwin/BulkDock/SCRATCH/511024/C24282-P82/C24282-P82.minimised.mol

>  <scratch_subdir>  (540) 
/opt/xchem-fragalysis-2/maxwin/BulkDock/SCRATCH/511024/C24282-P82

>  <fragmenstein_runtime>  (540) 
14.730223894119263

>  <fragmenstein_outcome>  (540) 
too moved

>  <fragmenstein_mode>  (540) 
expansion

>  <fragmenstein_error>  (540) 


$$$$
C19104-P122
     RDKit          3D

 33 34  0  0  0  0  0  0  0  0999 V2000
    2.3037  -12.6810   24.2314 C   0  0  0  0  0  0  0  0  0  0  0  0
    2.4235  -13.8996   23.5324 C   0  0  0  0  0  0  0  0  0  0  0  0
    0.3218  -14.1868   23.7081 C   0  0  0  0  0  0  0  0  0  0  0  0
   -1.3393  -14.8097   24.6874 C   0  0  0  0  0  0  0  0  0  0  0  0
   -2.3678  -15.8295   24.6699 C   0  0  0  0  0  0  0  0  0  0  0  0
   -2.7731  -17.0176   25.8304 C   0  0  0  0  0  0  0  0  0  0  0  0
   -2.5454  -16.7803   27.1773 C   0  0  0  0  0  0  0  0  0  0  0  0
   -2.0966  -15.4254   27.2648 C   0  0  0  0  0  0  0  0  0  0  0  0
   -1.8402  -14.4379   25.9332 N   0  0  0  0  0  0  0  0  0  0  0  0
    3.7829  -14.7542   24.1959 C   0  0  0  0  0  0  0  0  0  0  0  0
    4.3058  -15.7320   23.7061 O   0  0  0  0  0  0  0  0  0  0  0  0
    4.2740  -14.3920   25.4173 O   0  0  0  0  0  0  0  0  0  0  0  0
    3.3625  -12.9729   22.2337 N   0  0  0  0  0  0  0  0  0  0  0  0
    3.6063  -13.3681   20.9063 C   0  0  0  0  0  0  0  0  0  0  0  0
    4.7586  -13.0173   20.1467 C   0  0  0  0  0  0  0  0  0  0  0  0
    5.1922  -13.3329   18.7527 C   0  0  0  0  0  0  0  0  0  0  0  0
    6.2078  -14.2330   18.6794 F   0  0  0  0  0  0  0  0  0  0  0  0
    4.1978  -13.7645   17.9326 F   0  0  0  0  0  0  0  0  0  0  0  0
    5.6875  -12.2017   18.1588 F   0  0  0  0  0  0  0  0  0  0  0  0
    5.2979  -12.1112   20.9870 C   0  0  0  0  0  0  0  0  0  0  0  0
    4.1884  -11.7115   22.1144 N   0  0  0  0  0  0  0  0  0  0  0  0
    3.3386  -12.6069   24.2627 H   0  0  0  0  0  0  0  0  0  0  0  0
    1.8927  -11.8925   23.6527 H   0  0  0  0  0  0  0  0  0  0  0  0
    1.7906  -12.8872   25.1670 H   0  0  0  0  0  0  0  0  0  0  0  0
   -0.2043  -13.4383   23.1327 H   0  0  0  0  0  0  0  0  0  0  0  0
    0.0722  -14.5221   22.6230 H   0  0  0  0  0  0  0  0  0  0  0  0
   -3.2637  -15.6162   24.0583 H   0  0  0  0  0  0  0  0  0  0  0  0
   -2.3412  -18.0347   25.7301 H   0  0  0  0  0  0  0  0  0  0  0  0
   -3.0685  -17.3947   27.8645 H   0  0  0  0  0  0  0  0  0  0  0  0
   -1.9140  -14.9165   28.1886 H   0  0  0  0  0  0  0  0  0  0  0  0
    3.7677  -13.6995   25.8821 H   0  0  0  0  0  0  0  0  0  0  0  0
    2.8141  -14.0446   20.5929 H   0  0  0  0  0  0  0  0  0  0  0  0
    6.1807  -11.4802   20.9383 H   0  0  0  0  0  0  0  0  0  0  0  0
  1  2  1  0
  2  3  1  0
  3  4  1  0
  4  5  2  0
  5  6  1  0
  6  7  2  0
  7  8  1  0
  8  9  2  0
  2 10  1  0
 10 11  2  0
 10 12  1  0
  2 13  1  0
 13 14  1  0
 14 15  2  0
 15 16  1  0
 16 17  1  0
 16 18  1  0
 16 19  1  0
 15 20  1  0
 20 21  2  0
  9  4  1  0
 21 13  1  0
  1 22  1  0
  1 23  1  0
  1 24  1  0
  3 25  1  0
  3 26  1  0
  5 27  1  0
  6 28  1  0
  7 29  1  0
  8 30  1  0
 12 31  1  0
 14 32  1  0
 20 33  1  0
M  END
>  <Energy>  (541) 
640.21499196943216

>  <compound_id>  (541) 
19104

>  <target_id>  (541) 
1

>  <reference_id>  (541) 
122

>  <inspiration_ids>  (541) 
[122, 82]

>  <energy_score>  (541) 
572.1824798851205

>  <distance_score>  (541) 
14.152880749955065

>  <path>  (541) 
/opt/xchem-fragalysis-2/maxwin/BulkDock/SCRATCH/511024/C19104-P122/C19104-P122.minimised.mol

>  <scratch_subdir>  (541) 
/opt/xchem-fragalysis-2/maxwin/BulkDock/SCRATCH/511024/C19104-P122

>  <fragmenstein_runtime>  (541) 
15.427566766738892

>  <fragmenstein_outcome>  (541) 
too moved

>  <fragmenstein_mode>  (541) 
expansion

>  <fragmenstein_error>  (541) 


$$$$
C19104-P82
     RDKit          3D

 33 34  0  0  0  0  0  0  0  0999 V2000
    4.6855  -23.3244   23.3957 C   0  0  0  0  0  0  0  0  0  0  0  0
    4.3175  -23.1590   21.9063 C   0  0  0  0  0  0  0  0  0  0  0  0
    2.7486  -22.9494   21.6785 C   0  0  0  0  0  0  0  0  0  0  0  0
    1.6188  -23.7891   22.4000 C   0  0  0  0  0  0  0  0  0  0  0  0
    0.2967  -23.7073   21.9244 C   0  0  0  0  0  0  0  0  0  0  0  0
   -0.7890  -24.1613   22.6998 C   0  0  0  0  0  0  0  0  0  0  0  0
   -0.5558  -24.7196   23.9453 C   0  0  0  0  0  0  0  0  0  0  0  0
    0.7630  -24.7955   24.3518 C   0  0  0  0  0  0  0  0  0  0  0  0
    1.8307  -24.3224   23.6321 N   0  0  0  0  0  0  0  0  0  0  0  0
    4.7015  -24.4487   21.1868 C   0  0  0  0  0  0  0  0  0  0  0  0
    5.3742  -25.3676   21.6338 O   0  0  0  0  0  0  0  0  0  0  0  0
    4.2849  -24.5255   19.9039 O   0  0  0  0  0  0  0  0  0  0  0  0
    5.1876  -22.0204   21.3999 N   0  0  0  0  0  0  0  0  0  0  0  0
    6.4583  -22.0882   20.8422 C   0  0  0  0  0  0  0  0  0  0  0  0
    6.9833  -20.8043   20.7812 C   0  0  0  0  0  0  0  0  0  0  0  0
    8.2839  -20.3355   20.2606 C   0  0  0  0  0  0  0  0  0  0  0  0
    8.8582  -21.2866   19.4661 F   0  0  0  0  0  0  0  0  0  0  0  0
    9.1851  -20.0796   21.2412 F   0  0  0  0  0  0  0  0  0  0  0  0
    8.1855  -19.2266   19.4835 F   0  0  0  0  0  0  0  0  0  0  0  0
    5.9555  -20.0275   21.3238 C   0  0  0  0  0  0  0  0  0  0  0  0
    4.9220  -20.7537   21.7722 N   0  0  0  0  0  0  0  0  0  0  0  0
    4.3498  -22.4765   23.9962 H   0  0  0  0  0  0  0  0  0  0  0  0
    5.7736  -23.3904   23.5280 H   0  0  0  0  0  0  0  0  0  0  0  0
    4.2777  -24.2425   23.8277 H   0  0  0  0  0  0  0  0  0  0  0  0
    2.5248  -21.9004   21.9002 H   0  0  0  0  0  0  0  0  0  0  0  0
    2.5433  -23.0407   20.6031 H   0  0  0  0  0  0  0  0  0  0  0  0
    0.0982  -23.2367   20.9648 H   0  0  0  0  0  0  0  0  0  0  0  0
   -1.8014  -24.0659   22.3159 H   0  0  0  0  0  0  0  0  0  0  0  0
   -1.3633  -25.0948   24.5611 H   0  0  0  0  0  0  0  0  0  0  0  0
    1.0276  -25.2398   25.3078 H   0  0  0  0  0  0  0  0  0  0  0  0
    4.6243  -25.3907   19.5894 H   0  0  0  0  0  0  0  0  0  0  0  0
    6.8909  -23.0355   20.5510 H   0  0  0  0  0  0  0  0  0  0  0  0
    5.9098  -18.9526   21.4204 H   0  0  0  0  0  0  0  0  0  0  0  0
  1  2  1  0
  2  3  1  0
  3  4  1  0
  4  5  2  0
  5  6  1  0
  6  7  2  0
  7  8  1  0
  8  9  2  0
  2 10  1  0
 10 11  2  0
 10 12  1  0
  2 13  1  0
 13 14  1  0
 14 15  2  0
 15 16  1  0
 16 17  1  0
 16 18  1  0
 16 19  1  0
 15 20  1  0
 20 21  2  0
  9  4  1  0
 21 13  1  0
  1 22  1  0
  1 23  1  0
  1 24  1  0
  3 25  1  0
  3 26  1  0
  5 27  1  0
  6 28  1  0
  7 29  1  0
  8 30  1  0
 12 31  1  0
 14 32  1  0
 20 33  1  0
M  END
>  <Energy>  (542) 
34.937601106758898

>  <compound_id>  (542) 
19104

>  <target_id>  (542) 
1

>  <reference_id>  (542) 
82

>  <inspiration_ids>  (542) 
[122, 82]

>  <energy_score>  (542) 
-33.0949109775388

>  <distance_score>  (542) 
17.46936191746061

>  <path>  (542) 
/opt/xchem-fragalysis-2/maxwin/BulkDock/SCRATCH/511024/C19104-P82/C19104-P82.minimised.mol

>  <scratch_subdir>  (542) 
/opt/xchem-fragalysis-2/maxwin/BulkDock/SCRATCH/511024/C19104-P82

>  <fragmenstein_runtime>  (542) 
26.897191286087036

>  <fragmenstein_outcome>  (542) 
too moved

>  <fragmenstein_mode>  (542) 
expansion

>  <fragmenstein_error>  (542) 


$$$$
C19105-P122
     RDKit          3D

 32 33  0  0  0  0  0  0  0  0999 V2000
    3.8506   -6.6011   19.2348 C   0  0  0  0  0  0  0  0  0  0  0  0
    2.3638   -6.2124   19.2693 C   0  0  0  0  0  0  0  0  0  0  0  0
    2.2703   -4.7167   19.6501 C   0  0  0  0  0  0  0  0  0  0  0  0
    1.7623   -6.3584   17.8752 C   0  0  0  0  0  0  0  0  0  0  0  0
    2.2776   -6.8744   16.8953 O   0  0  0  0  0  0  0  0  0  0  0  0
    0.5176   -5.8427   17.7483 O   0  0  0  0  0  0  0  0  0  0  0  0
    1.6573   -7.0573   20.2464 N   0  0  0  0  0  0  0  0  0  0  0  0
    0.7653   -8.0854   20.0281 C   0  0  0  0  0  0  0  0  0  0  0  0
    0.3004   -8.5217   21.2575 C   0  0  0  0  0  0  0  0  0  0  0  0
   -0.7455   -9.4281   21.4619 N   0  0  0  0  0  0  0  0  0  0  0  0
   -0.9977  -10.3801   22.5281 C   0  0  0  0  0  0  0  0  0  0  0  0
   -0.2135  -12.1454   22.6371 C   0  0  0  0  0  0  0  0  0  0  0  0
   -0.6651  -13.7368   23.7421 C   0  0  0  0  0  0  0  0  0  0  0  0
   -1.8932  -13.0656   25.1490 C   0  0  0  0  0  0  0  0  0  0  0  0
   -2.7758  -11.3886   25.0474 C   0  0  0  0  0  0  0  0  0  0  0  0
   -2.4019  -10.0455   23.7860 N   0  0  0  0  0  0  0  0  0  0  0  0
    0.9484   -7.6336   22.1539 C   0  0  0  0  0  0  0  0  0  0  0  0
    1.8018   -6.7862   21.5650 N   0  0  0  0  0  0  0  0  0  0  0  0
    4.3380   -6.4195   20.1997 H   0  0  0  0  0  0  0  0  0  0  0  0
    3.9808   -7.6608   19.0045 H   0  0  0  0  0  0  0  0  0  0  0  0
    4.3950   -6.0330   18.4720 H   0  0  0  0  0  0  0  0  0  0  0  0
    1.2309   -4.4057   19.8096 H   0  0  0  0  0  0  0  0  0  0  0  0
    2.6865   -4.0813   18.8590 H   0  0  0  0  0  0  0  0  0  0  0  0
    2.8202   -4.4964   20.5725 H   0  0  0  0  0  0  0  0  0  0  0  0
    0.2771   -6.0342   16.8166 H   0  0  0  0  0  0  0  0  0  0  0  0
    0.5168   -8.4148   19.0309 H   0  0  0  0  0  0  0  0  0  0  0  0
   -1.5912   -8.8590   21.5615 H   0  0  0  0  0  0  0  0  0  0  0  0
    0.8408  -11.7106   22.7429 H   0  0  0  0  0  0  0  0  0  0  0  0
   -0.9575  -14.6659   23.2552 H   0  0  0  0  0  0  0  0  0  0  0  0
   -2.5242  -13.8611   25.6157 H   0  0  0  0  0  0  0  0  0  0  0  0
   -3.6481  -11.1370   25.6484 H   0  0  0  0  0  0  0  0  0  0  0  0
    0.8135   -7.5597   23.2234 H   0  0  0  0  0  0  0  0  0  0  0  0
  1  2  1  0
  2  3  1  0
  2  4  1  0
  4  5  2  0
  4  6  1  0
  2  7  1  0
  7  8  1  0
  8  9  2  0
  9 10  1  0
 10 11  1  0
 11 12  2  0
 12 13  1  0
 13 14  2  0
 14 15  1  0
 15 16  2  0
  9 17  1  0
 17 18  2  0
 18  7  1  0
 16 11  1  0
  1 19  1  0
  1 20  1  0
  1 21  1  0
  3 22  1  0
  3 23  1  0
  3 24  1  0
  6 25  1  0
  8 26  1  0
 10 27  1  0
 12 28  1  0
 13 29  1  0
 14 30  1  0
 15 31  1  0
 17 32  1  0
M  END
>  <Energy>  (543) 
557.6133170007829

>  <compound_id>  (543) 
19105

>  <target_id>  (543) 
1

>  <reference_id>  (543) 
122

>  <inspiration_ids>  (543) 
[122, 82]

>  <energy_score>  (543) 
519.1238932047504

>  <distance_score>  (543) 
16.552556489600732

>  <path>  (543) 
/opt/xchem-fragalysis-2/maxwin/BulkDock/SCRATCH/511024/C19105-P122/C19105-P122.minimised.mol

>  <scratch_subdir>  (543) 
/opt/xchem-fragalysis-2/maxwin/BulkDock/SCRATCH/511024/C19105-P122

>  <fragmenstein_runtime>  (543) 
14.267513751983643

>  <fragmenstein_outcome>  (543) 
too moved

>  <fragmenstein_mode>  (543) 
expansion

>  <fragmenstein_error>  (543) 


$$$$
C19105-P82
     RDKit          3D

 32 33  0  0  0  0  0  0  0  0999 V2000
   -4.0735   -6.8528   27.0443 C   0  0  0  0  0  0  0  0  0  0  0  0
   -2.8360   -7.6736   26.6422 C   0  0  0  0  0  0  0  0  0  0  0  0
   -2.0011   -7.9895   27.9031 C   0  0  0  0  0  0  0  0  0  0  0  0
   -1.9788   -6.7667   25.7412 C   0  0  0  0  0  0  0  0  0  0  0  0
   -1.1807   -5.9508   26.1936 O   0  0  0  0  0  0  0  0  0  0  0  0
   -2.1918   -6.8346   24.4095 O   0  0  0  0  0  0  0  0  0  0  0  0
   -3.2937   -8.9207   25.9891 N   0  0  0  0  0  0  0  0  0  0  0  0
   -3.7285  -10.0787   26.6132 C   0  0  0  0  0  0  0  0  0  0  0  0
   -4.3560  -10.8614   25.6744 C   0  0  0  0  0  0  0  0  0  0  0  0
   -5.0376  -12.0495   25.7740 N   0  0  0  0  0  0  0  0  0  0  0  0
   -5.3762  -13.0613   26.7155 C   0  0  0  0  0  0  0  0  0  0  0  0
   -4.9870  -13.0892   28.0455 C   0  0  0  0  0  0  0  0  0  0  0  0
   -5.3990  -14.1471   28.8820 C   0  0  0  0  0  0  0  0  0  0  0  0
   -6.1895  -15.1712   28.3809 C   0  0  0  0  0  0  0  0  0  0  0  0
   -6.5323  -15.0900   27.0493 C   0  0  0  0  0  0  0  0  0  0  0  0
   -6.1471  -14.0737   26.2259 N   0  0  0  0  0  0  0  0  0  0  0  0
   -4.2222  -10.0841   24.4864 C   0  0  0  0  0  0  0  0  0  0  0  0
   -3.5153   -8.9578   24.6479 N   0  0  0  0  0  0  0  0  0  0  0  0
   -4.6791   -6.5925   26.1678 H   0  0  0  0  0  0  0  0  0  0  0  0
   -3.7878   -5.9133   27.5317 H   0  0  0  0  0  0  0  0  0  0  0  0
   -4.7168   -7.4079   27.7367 H   0  0  0  0  0  0  0  0  0  0  0  0
   -2.5816   -8.5270   28.6603 H   0  0  0  0  0  0  0  0  0  0  0  0
   -1.1238   -8.5976   27.6555 H   0  0  0  0  0  0  0  0  0  0  0  0
   -1.6362   -7.0749   28.3855 H   0  0  0  0  0  0  0  0  0  0  0  0
   -2.8165   -7.5607   24.1542 H   0  0  0  0  0  0  0  0  0  0  0  0
   -3.6244  -10.2095   27.6796 H   0  0  0  0  0  0  0  0  0  0  0  0
   -5.5246  -12.3741   24.9379 H   0  0  0  0  0  0  0  0  0  0  0  0
   -4.3634  -12.3046   28.4560 H   0  0  0  0  0  0  0  0  0  0  0  0
   -5.0847  -14.1572   29.9230 H   0  0  0  0  0  0  0  0  0  0  0  0
   -6.5117  -15.9971   29.0013 H   0  0  0  0  0  0  0  0  0  0  0  0
   -7.1422  -15.8542   26.5760 H   0  0  0  0  0  0  0  0  0  0  0  0
   -4.6201  -10.3102   23.5044 H   0  0  0  0  0  0  0  0  0  0  0  0
  1  2  1  0
  2  3  1  0
  2  4  1  0
  4  5  2  0
  4  6  1  0
  2  7  1  0
  7  8  1  0
  8  9  2  0
  9 10  1  0
 10 11  1  0
 11 12  2  0
 12 13  1  0
 13 14  2  0
 14 15  1  0
 15 16  2  0
  9 17  1  0
 17 18  2  0
 18  7  1  0
 16 11  1  0
  1 19  1  0
  1 20  1  0
  1 21  1  0
  3 22  1  0
  3 23  1  0
  3 24  1  0
  6 25  1  0
  8 26  1  0
 10 27  1  0
 12 28  1  0
 13 29  1  0
 14 30  1  0
 15 31  1  0
 17 32  1  0
M  END
>  <Energy>  (544) 
-7.0315307826597309

>  <compound_id>  (544) 
19105

>  <target_id>  (544) 
1

>  <reference_id>  (544) 
82

>  <inspiration_ids>  (544) 
[122, 82]

>  <energy_score>  (544) 
-45.52095457867381

>  <distance_score>  (544) 
16.83604918153057

>  <path>  (544) 
/opt/xchem-fragalysis-2/maxwin/BulkDock/SCRATCH/511024/C19105-P82/C19105-P82.minimised.mol

>  <scratch_subdir>  (544) 
/opt/xchem-fragalysis-2/maxwin/BulkDock/SCRATCH/511024/C19105-P82

>  <fragmenstein_runtime>  (544) 
27.51724123954773

>  <fragmenstein_outcome>  (544) 
too moved

>  <fragmenstein_mode>  (544) 
expansion

>  <fragmenstein_error>  (544) 


$$$$
C16011-P94
     RDKit          3D

 40 43  0  0  0  0  0  0  0  0999 V2000
   -2.5241   -9.1197   32.2608 C   0  0  0  0  0  0  0  0  0  0  0  0
   -1.7444   -7.8889   32.4754 C   0  0  0  0  0  0  0  0  0  0  0  0
   -0.9489   -7.2841   31.5889 C   0  0  0  0  0  0  0  0  0  0  0  0
   -0.1636   -6.1213   32.0192 C   0  0  0  0  0  0  0  0  0  0  0  0
    0.4755   -5.4666   31.2044 O   0  0  0  0  0  0  0  0  0  0  0  0
   -0.2785   -5.7827   33.4459 C   0  0  0  0  0  0  0  0  0  0  0  0
    0.4761   -4.7937   33.9397 C   0  0  0  0  0  0  0  0  0  0  0  0
    0.2728   -4.1522   35.1328 N   0  0  0  0  0  0  0  0  0  0  0  0
    1.2275   -3.7675   36.0835 C   0  0  0  0  0  0  0  0  0  0  0  0
    2.5892   -4.0579   35.9889 C   0  0  0  0  0  0  0  0  0  0  0  0
    3.4748   -3.7496   37.0325 C   0  0  0  0  0  0  0  0  0  0  0  0
    2.9271   -3.1509   38.1681 C   0  0  0  0  0  0  0  0  0  0  0  0
    3.4565   -2.7816   39.3775 N   0  0  0  0  0  0  0  0  0  0  0  0
    2.4475   -2.2635   40.1613 C   0  0  0  0  0  0  0  0  0  0  0  0
    2.6133   -1.8617   41.5540 C   0  0  0  0  0  0  0  0  0  0  0  0
    1.5405   -1.9603   42.4439 C   0  0  0  0  0  0  0  0  0  0  0  0
    1.7031   -1.5926   43.7775 C   0  0  0  0  0  0  0  0  0  0  0  0
    2.9441   -1.1315   44.1835 C   0  0  0  0  0  0  0  0  0  0  0  0
    4.0080   -1.0138   43.3589 N   0  0  0  0  0  0  0  0  0  0  0  0
    3.8122   -1.3744   42.0660 C   0  0  0  0  0  0  0  0  0  0  0  0
    1.3162   -2.2356   39.4811 N   0  0  0  0  0  0  0  0  0  0  0  0
    1.5936   -2.7946   38.2646 C   0  0  0  0  0  0  0  0  0  0  0  0
    0.7491   -3.0456   37.1856 C   0  0  0  0  0  0  0  0  0  0  0  0
   -1.2121   -6.4616   34.3502 C   0  0  0  0  0  0  0  0  0  0  0  0
   -1.3853   -6.1612   35.5293 O   0  0  0  0  0  0  0  0  0  0  0  0
   -1.8872   -7.4917   33.8062 O   0  0  0  0  0  0  0  0  0  0  0  0
   -2.3745   -9.7238   33.1549 H   0  0  0  0  0  0  0  0  0  0  0  0
   -2.1675   -9.7152   31.4267 H   0  0  0  0  0  0  0  0  0  0  0  0
   -3.5889   -8.9055   32.1577 H   0  0  0  0  0  0  0  0  0  0  0  0
   -0.7948   -7.6118   30.5687 H   0  0  0  0  0  0  0  0  0  0  0  0
    1.2420   -4.3143   33.3317 H   0  0  0  0  0  0  0  0  0  0  0  0
   -0.5923   -4.4413   35.6021 H   0  0  0  0  0  0  0  0  0  0  0  0
    2.9790   -4.5776   35.1169 H   0  0  0  0  0  0  0  0  0  0  0  0
    4.5257   -4.0093   36.9682 H   0  0  0  0  0  0  0  0  0  0  0  0
    4.4078   -2.9371   39.6726 H   0  0  0  0  0  0  0  0  0  0  0  0
    0.5783   -2.3378   42.0979 H   0  0  0  0  0  0  0  0  0  0  0  0
    0.8792   -1.6706   44.4778 H   0  0  0  0  0  0  0  0  0  0  0  0
    3.1198   -0.8350   45.2135 H   0  0  0  0  0  0  0  0  0  0  0  0
    4.6869   -1.2386   41.4371 H   0  0  0  0  0  0  0  0  0  0  0  0
   -0.2807   -2.7189   37.2400 H   0  0  0  0  0  0  0  0  0  0  0  0
  1  2  1  0
  2  3  2  0
  3  4  1  0
  4  5  2  0
  4  6  1  0
  6  7  2  3
  7  8  1  0
  8  9  1  0
  9 10  2  0
 10 11  1  0
 11 12  2  0
 12 13  1  0
 13 14  1  0
 14 15  1  0
 15 16  2  0
 16 17  1  0
 17 18  2  0
 18 19  1  0
 19 20  2  0
 14 21  2  0
 21 22  1  0
 22 23  2  0
  6 24  1  0
 24 25  2  0
 24 26  1  0
 26  2  1  0
 23  9  1  0
 22 12  1  0
 20 15  1  0
  1 27  1  0
  1 28  1  0
  1 29  1  0
  3 30  1  0
  7 31  1  0
  8 32  1  0
 10 33  1  0
 11 34  1  0
 13 35  1  0
 16 36  1  0
 17 37  1  0
 18 38  1  0
 20 39  1  0
 23 40  1  0
M  END
>  <Energy>  (545) 
63.98457671123257

>  <compound_id>  (545) 
16011

>  <target_id>  (545) 
1

>  <reference_id>  (545) 
94

>  <inspiration_ids>  (545) 
[94, 56]

>  <energy_score>  (545) 
-30.626311134836726

>  <distance_score>  (545) 
1.5343590515341803

>  <path>  (545) 
/opt/xchem-fragalysis-2/maxwin/BulkDock/SCRATCH/511024/C16011-P94/C16011-P94.minimised.mol

>  <scratch_subdir>  (545) 
/opt/xchem-fragalysis-2/maxwin/BulkDock/SCRATCH/511024/C16011-P94

>  <fragmenstein_runtime>  (545) 
7.165624618530273

>  <fragmenstein_outcome>  (545) 
too moved

>  <fragmenstein_mode>  (545) 
expansion

>  <fragmenstein_error>  (545) 


$$$$
C16011-P56
     RDKit          3D

 40 43  0  0  0  0  0  0  0  0999 V2000
   -1.9185   -9.7195   31.8303 C   0  0  0  0  0  0  0  0  0  0  0  0
   -1.5842   -8.4001   32.3806 C   0  0  0  0  0  0  0  0  0  0  0  0
   -0.7495   -7.4972   31.8570 C   0  0  0  0  0  0  0  0  0  0  0  0
   -0.3327   -6.3745   32.7115 C   0  0  0  0  0  0  0  0  0  0  0  0
    0.2799   -5.4184   32.2538 O   0  0  0  0  0  0  0  0  0  0  0  0
   -0.6780   -6.5426   34.1328 C   0  0  0  0  0  0  0  0  0  0  0  0
   -0.0957   -5.8643   35.1236 C   0  0  0  0  0  0  0  0  0  0  0  0
    0.8609   -4.8959   35.0856 N   0  0  0  0  0  0  0  0  0  0  0  0
    1.2012   -4.0395   36.1483 C   0  0  0  0  0  0  0  0  0  0  0  0
    2.3766   -3.2844   36.0368 C   0  0  0  0  0  0  0  0  0  0  0  0
    2.8510   -2.4822   37.0827 C   0  0  0  0  0  0  0  0  0  0  0  0
    2.1059   -2.4878   38.2603 C   0  0  0  0  0  0  0  0  0  0  0  0
    2.2760   -1.8655   39.4681 N   0  0  0  0  0  0  0  0  0  0  0  0
    1.2455   -2.2268   40.3088 C   0  0  0  0  0  0  0  0  0  0  0  0
    1.1007   -1.7720   41.6918 C   0  0  0  0  0  0  0  0  0  0  0  0
    1.9405   -0.8242   42.2869 C   0  0  0  0  0  0  0  0  0  0  0  0
    1.7381   -0.4479   43.6156 C   0  0  0  0  0  0  0  0  0  0  0  0
    0.6977   -1.0329   44.3170 C   0  0  0  0  0  0  0  0  0  0  0  0
   -0.1357   -1.9487   43.7862 N   0  0  0  0  0  0  0  0  0  0  0  0
    0.0817   -2.2913   42.4895 C   0  0  0  0  0  0  0  0  0  0  0  0
    0.4241   -3.0499   39.6807 N   0  0  0  0  0  0  0  0  0  0  0  0
    0.9439   -3.2220   38.4210 C   0  0  0  0  0  0  0  0  0  0  0  0
    0.4759   -3.9995   37.3560 C   0  0  0  0  0  0  0  0  0  0  0  0
   -1.7276   -7.4610   34.5694 C   0  0  0  0  0  0  0  0  0  0  0  0
   -2.2108   -7.4782   35.6923 O   0  0  0  0  0  0  0  0  0  0  0  0
   -2.1928   -8.2909   33.6248 O   0  0  0  0  0  0  0  0  0  0  0  0
   -1.3763   -9.9793   30.9226 H   0  0  0  0  0  0  0  0  0  0  0  0
   -1.6612  -10.4276   32.6083 H   0  0  0  0  0  0  0  0  0  0  0  0
   -2.9946   -9.8072   31.7097 H   0  0  0  0  0  0  0  0  0  0  0  0
   -0.2672   -7.5935   30.8920 H   0  0  0  0  0  0  0  0  0  0  0  0
   -0.4068   -6.0883   36.1410 H   0  0  0  0  0  0  0  0  0  0  0  0
    1.1940   -4.6271   34.1582 H   0  0  0  0  0  0  0  0  0  0  0  0
    2.9654   -3.3413   35.1234 H   0  0  0  0  0  0  0  0  0  0  0  0
    3.7715   -1.9199   36.9812 H   0  0  0  0  0  0  0  0  0  0  0  0
    3.0431   -1.2564   39.7007 H   0  0  0  0  0  0  0  0  0  0  0  0
    2.7527   -0.3588   41.7388 H   0  0  0  0  0  0  0  0  0  0  0  0
    2.3766    0.2877   44.0921 H   0  0  0  0  0  0  0  0  0  0  0  0
    0.5005   -0.7718   45.3527 H   0  0  0  0  0  0  0  0  0  0  0  0
   -0.6153   -3.0280   42.0928 H   0  0  0  0  0  0  0  0  0  0  0  0
   -0.4433   -4.5479   37.5094 H   0  0  0  0  0  0  0  0  0  0  0  0
  1  2  1  0
  2  3  2  0
  3  4  1  0
  4  5  2  0
  4  6  1  0
  6  7  2  3
  7  8  1  0
  8  9  1  0
  9 10  2  0
 10 11  1  0
 11 12  2  0
 12 13  1  0
 13 14  1  0
 14 15  1  0
 15 16  2  0
 16 17  1  0
 17 18  2  0
 18 19  1  0
 19 20  2  0
 14 21  2  0
 21 22  1  0
 22 23  2  0
  6 24  1  0
 24 25  2  0
 24 26  1  0
 26  2  1  0
 23  9  1  0
 22 12  1  0
 20 15  1  0
  1 27  1  0
  1 28  1  0
  1 29  1  0
  3 30  1  0
  7 31  1  0
  8 32  1  0
 10 33  1  0
 11 34  1  0
 13 35  1  0
 16 36  1  0
 17 37  1  0
 18 38  1  0
 20 39  1  0
 23 40  1  0
M  END
>  <Energy>  (546) 
60.845012763523961

>  <compound_id>  (546) 
16011

>  <target_id>  (546) 
1

>  <reference_id>  (546) 
56

>  <inspiration_ids>  (546) 
[94, 56]

>  <energy_score>  (546) 
-33.76587508254522

>  <distance_score>  (546) 
0.9334992537697899

>  <path>  (546) 
/opt/xchem-fragalysis-2/maxwin/BulkDock/SCRATCH/511024/C16011-P56/C16011-P56.minimised.mol

>  <scratch_subdir>  (546) 
/opt/xchem-fragalysis-2/maxwin/BulkDock/SCRATCH/511024/C16011-P56

>  <fragmenstein_runtime>  (546) 
5.995871305465698

>  <fragmenstein_outcome>  (546) 
acceptable

>  <fragmenstein_mode>  (546) 
expansion

>  <fragmenstein_error>  (546) 


$$$$
C16012-P94
     RDKit          3D

 37 39  0  0  0  0  0  0  0  0999 V2000
   -6.4942  -17.1721   33.3447 O   0  0  0  0  0  0  0  0  0  0  0  0
   -6.8961  -16.6101   34.3205 C   0  0  0  0  0  0  0  0  0  0  0  0
   -8.2466  -17.0220   35.1622 C   0  0  0  0  0  0  0  0  0  0  0  0
   -9.5636  -17.3461   34.4273 C   0  0  0  0  0  0  0  0  0  0  0  0
  -10.8027  -17.8707   35.0779 N   0  0  0  0  0  0  0  0  0  0  0  0
  -11.3531  -17.4877   36.2677 C   0  0  0  0  0  0  0  0  0  0  0  0
  -12.6144  -17.8548   36.3753 N   0  0  0  0  0  0  0  0  0  0  0  0
  -12.8195  -18.7363   35.3473 C   0  0  0  0  0  0  0  0  0  0  0  0
  -13.9619  -19.4707   34.9800 C   0  0  0  0  0  0  0  0  0  0  0  0
  -13.8330  -20.5714   34.1107 C   0  0  0  0  0  0  0  0  0  0  0  0
  -12.6065  -20.8632   33.5318 C   0  0  0  0  0  0  0  0  0  0  0  0
  -11.5490  -19.9558   33.6838 C   0  0  0  0  0  0  0  0  0  0  0  0
  -11.6498  -18.9108   34.6290 C   0  0  0  0  0  0  0  0  0  0  0  0
   -6.3135  -15.5174   35.1003 N   0  0  0  0  0  0  0  0  0  0  0  0
   -4.7311  -14.6866   34.9683 N   0  0  0  0  0  0  0  0  0  0  0  0
   -3.9573  -13.4380   35.1046 C   0  0  0  0  0  0  0  0  0  0  0  0
   -3.4252  -11.5499   35.3391 C   0  0  0  0  0  0  0  0  0  0  0  0
   -2.2159  -11.0543   34.6466 C   0  0  0  0  0  0  0  0  0  0  0  0
   -2.0784   -9.6743   34.0714 C   0  0  0  0  0  0  0  0  0  0  0  0
   -2.7299   -8.5647   34.5008 C   0  0  0  0  0  0  0  0  0  0  0  0
   -3.8123   -8.7583   35.1818 N   0  0  0  0  0  0  0  0  0  0  0  0
   -4.1343  -10.1036   35.4124 C   0  0  0  0  0  0  0  0  0  0  0  0
   -7.9176  -17.8819   35.7559 H   0  0  0  0  0  0  0  0  0  0  0  0
   -8.4876  -16.2631   35.9124 H   0  0  0  0  0  0  0  0  0  0  0  0
   -9.8695  -16.4241   33.9283 H   0  0  0  0  0  0  0  0  0  0  0  0
   -9.3034  -18.1136   33.7106 H   0  0  0  0  0  0  0  0  0  0  0  0
  -10.8119  -16.9119   37.0024 H   0  0  0  0  0  0  0  0  0  0  0  0
  -14.9038  -19.2755   35.4827 H   0  0  0  0  0  0  0  0  0  0  0  0
  -14.6873  -21.2178   33.9203 H   0  0  0  0  0  0  0  0  0  0  0  0
  -12.5065  -21.7184   32.8664 H   0  0  0  0  0  0  0  0  0  0  0  0
  -10.6608  -20.0619   33.0731 H   0  0  0  0  0  0  0  0  0  0  0  0
   -6.9680  -15.2356   35.8119 H   0  0  0  0  0  0  0  0  0  0  0  0
   -3.1435  -13.8502   34.4435 H   0  0  0  0  0  0  0  0  0  0  0  0
   -1.6375  -11.7747   34.0913 H   0  0  0  0  0  0  0  0  0  0  0  0
   -1.5230   -9.4878   33.1616 H   0  0  0  0  0  0  0  0  0  0  0  0
   -2.4674   -7.5604   34.2043 H   0  0  0  0  0  0  0  0  0  0  0  0
   -5.2048   -9.9285   35.5713 H   0  0  0  0  0  0  0  0  0  0  0  0
  1  2  2  0
  2  3  1  0
  3  4  1  0
  4  5  1  0
  5  6  1  0
  6  7  2  0
  7  8  1  0
  8  9  2  0
  9 10  1  0
 10 11  2  0
 11 12  1  0
 12 13  2  0
  2 14  1  0
 14 15  1  0
 15 16  2  3
 16 17  1  0
 17 18  2  0
 18 19  1  0
 19 20  2  0
 20 21  1  0
 21 22  2  0
 13  5  1  0
 22 17  1  0
 13  8  1  0
  3 23  1  0
  3 24  1  0
  4 25  1  0
  4 26  1  0
  6 27  1  0
  9 28  1  0
 10 29  1  0
 11 30  1  0
 12 31  1  0
 14 32  1  0
 16 33  1  0
 18 34  1  0
 19 35  1  0
 20 36  1  0
 22 37  1  0
M  END
>  <Energy>  (547) 
398.33043412559118

>  <compound_id>  (547) 
16012

>  <target_id>  (547) 
1

>  <reference_id>  (547) 
94

>  <inspiration_ids>  (547) 
[94, 56]

>  <energy_score>  (547) 
318.2111361091587

>  <distance_score>  (547) 
6.17004923280374

>  <path>  (547) 
/opt/xchem-fragalysis-2/maxwin/BulkDock/SCRATCH/511024/C16012-P94/C16012-P94.minimised.mol

>  <scratch_subdir>  (547) 
/opt/xchem-fragalysis-2/maxwin/BulkDock/SCRATCH/511024/C16012-P94

>  <fragmenstein_runtime>  (547) 
19.399295806884766

>  <fragmenstein_outcome>  (547) 
too moved

>  <fragmenstein_mode>  (547) 
expansion

>  <fragmenstein_error>  (547) 


$$$$
C16012-P56
     RDKit          3D

 37 39  0  0  0  0  0  0  0  0999 V2000
   -7.4040  -15.3188   35.8762 O   0  0  0  0  0  0  0  0  0  0  0  0
   -6.6573  -15.5434   34.9351 C   0  0  0  0  0  0  0  0  0  0  0  0
   -7.2050  -16.6983   34.1061 C   0  0  0  0  0  0  0  0  0  0  0  0
   -8.8327  -16.9355   34.2955 C   0  0  0  0  0  0  0  0  0  0  0  0
   -9.6566  -16.9994   35.5309 N   0  0  0  0  0  0  0  0  0  0  0  0
   -9.2355  -16.8852   36.8361 C   0  0  0  0  0  0  0  0  0  0  0  0
  -10.2252  -16.9219   37.7075 N   0  0  0  0  0  0  0  0  0  0  0  0
  -11.3190  -17.3205   36.9978 C   0  0  0  0  0  0  0  0  0  0  0  0
  -12.6137  -17.6135   37.4553 C   0  0  0  0  0  0  0  0  0  0  0  0
  -13.5328  -18.2206   36.5967 C   0  0  0  0  0  0  0  0  0  0  0  0
  -13.1279  -18.6445   35.3463 C   0  0  0  0  0  0  0  0  0  0  0  0
  -11.8470  -18.3319   34.8926 C   0  0  0  0  0  0  0  0  0  0  0  0
  -10.9860  -17.5134   35.6591 C   0  0  0  0  0  0  0  0  0  0  0  0
   -5.0734  -14.7929   34.5725 N   0  0  0  0  0  0  0  0  0  0  0  0
   -4.2121  -13.4961   35.3845 N   0  0  0  0  0  0  0  0  0  0  0  0
   -3.5680  -12.0046   35.3207 C   0  0  0  0  0  0  0  0  0  0  0  0
   -2.9160  -10.3523   35.0157 C   0  0  0  0  0  0  0  0  0  0  0  0
   -3.4449   -9.1584   35.4333 C   0  0  0  0  0  0  0  0  0  0  0  0
   -2.7255   -7.9909   35.1159 C   0  0  0  0  0  0  0  0  0  0  0  0
   -1.5843   -8.0014   34.3344 C   0  0  0  0  0  0  0  0  0  0  0  0
   -1.0688   -9.1327   33.8746 N   0  0  0  0  0  0  0  0  0  0  0  0
   -1.7356  -10.2496   34.2565 C   0  0  0  0  0  0  0  0  0  0  0  0
   -6.8279  -17.6133   34.5558 H   0  0  0  0  0  0  0  0  0  0  0  0
   -6.8793  -16.6599   33.0790 H   0  0  0  0  0  0  0  0  0  0  0  0
   -9.3466  -16.2091   33.6633 H   0  0  0  0  0  0  0  0  0  0  0  0
   -8.9869  -17.9275   33.8717 H   0  0  0  0  0  0  0  0  0  0  0  0
   -8.1988  -16.8050   37.1283 H   0  0  0  0  0  0  0  0  0  0  0  0
  -12.8704  -17.4060   38.4881 H   0  0  0  0  0  0  0  0  0  0  0  0
  -14.5298  -18.4510   36.9599 H   0  0  0  0  0  0  0  0  0  0  0  0
  -13.7811  -19.2700   34.7462 H   0  0  0  0  0  0  0  0  0  0  0  0
  -11.4867  -18.8406   34.0098 H   0  0  0  0  0  0  0  0  0  0  0  0
   -4.7388  -15.1185   33.6954 H   0  0  0  0  0  0  0  0  0  0  0  0
   -3.0506  -11.8445   36.2414 H   0  0  0  0  0  0  0  0  0  0  0  0
   -4.3559   -9.1356   36.0147 H   0  0  0  0  0  0  0  0  0  0  0  0
   -3.0133   -7.0316   35.4973 H   0  0  0  0  0  0  0  0  0  0  0  0
   -1.0551   -7.0856   34.0883 H   0  0  0  0  0  0  0  0  0  0  0  0
   -1.2527  -11.1604   33.9683 H   0  0  0  0  0  0  0  0  0  0  0  0
  1  2  2  0
  2  3  1  0
  3  4  1  0
  4  5  1  0
  5  6  1  0
  6  7  2  0
  7  8  1  0
  8  9  2  0
  9 10  1  0
 10 11  2  0
 11 12  1  0
 12 13  2  0
  2 14  1  0
 14 15  1  0
 15 16  2  3
 16 17  1  0
 17 18  2  0
 18 19  1  0
 19 20  2  0
 20 21  1  0
 21 22  2  0
 13  5  1  0
 22 17  1  0
 13  8  1  0
  3 23  1  0
  3 24  1  0
  4 25  1  0
  4 26  1  0
  6 27  1  0
  9 28  1  0
 10 29  1  0
 11 30  1  0
 12 31  1  0
 14 32  1  0
 16 33  1  0
 18 34  1  0
 19 35  1  0
 20 36  1  0
 22 37  1  0
M  END
>  <Energy>  (548) 
405.66259747123723

>  <compound_id>  (548) 
16012

>  <target_id>  (548) 
1

>  <reference_id>  (548) 
56

>  <inspiration_ids>  (548) 
[94, 56]

>  <energy_score>  (548) 
325.54329945479685

>  <distance_score>  (548) 
7.2590824164397825

>  <path>  (548) 
/opt/xchem-fragalysis-2/maxwin/BulkDock/SCRATCH/511024/C16012-P56/C16012-P56.minimised.mol

>  <scratch_subdir>  (548) 
/opt/xchem-fragalysis-2/maxwin/BulkDock/SCRATCH/511024/C16012-P56

>  <fragmenstein_runtime>  (548) 
14.430603981018066

>  <fragmenstein_outcome>  (548) 
too moved

>  <fragmenstein_mode>  (548) 
expansion

>  <fragmenstein_error>  (548) 


$$$$
C29308-P94
     RDKit          3D

 43 45  0  0  0  0  0  0  0  0999 V2000
   -7.0976  -15.9461   34.7662 C   0  0  0  0  0  0  0  0  0  0  0  0
   -7.9990  -15.9720   33.5346 C   0  0  0  0  0  0  0  0  0  0  0  0
   -8.2302  -17.3470   33.5873 N   0  0  0  0  0  0  0  0  0  0  0  0
   -7.3881  -18.4226   33.3536 C   0  0  0  0  0  0  0  0  0  0  0  0
   -6.2679  -18.4592   32.9704 O   0  0  0  0  0  0  0  0  0  0  0  0
   -8.2113  -19.7571   33.6263 C   0  0  0  0  0  0  0  0  0  0  0  0
   -9.9825  -19.8318   33.1312 C   0  0  0  0  0  0  0  0  0  0  0  0
  -11.3161  -20.9006   33.1989 C   0  0  0  0  0  0  0  0  0  0  0  0
  -11.3354  -22.2606   32.6612 N   0  0  0  0  0  0  0  0  0  0  0  0
  -11.5340  -23.3757   33.4421 C   0  0  0  0  0  0  0  0  0  0  0  0
  -11.2681  -24.4836   32.7973 N   0  0  0  0  0  0  0  0  0  0  0  0
  -11.2668  -24.1073   31.4875 C   0  0  0  0  0  0  0  0  0  0  0  0
  -11.1613  -24.9169   30.3437 C   0  0  0  0  0  0  0  0  0  0  0  0
  -11.3106  -24.3321   29.0842 C   0  0  0  0  0  0  0  0  0  0  0  0
  -11.5360  -22.9607   28.9704 C   0  0  0  0  0  0  0  0  0  0  0  0
  -11.5811  -22.1303   30.1025 C   0  0  0  0  0  0  0  0  0  0  0  0
  -11.4217  -22.7190   31.3623 C   0  0  0  0  0  0  0  0  0  0  0  0
   -7.8212  -14.7004   32.3970 C   0  0  0  0  0  0  0  0  0  0  0  0
   -7.5076  -13.4577   32.7324 C   0  0  0  0  0  0  0  0  0  0  0  0
   -6.4440  -12.4285   31.7430 C   0  0  0  0  0  0  0  0  0  0  0  0
   -5.4867  -12.8561   30.6922 C   0  0  0  0  0  0  0  0  0  0  0  0
   -6.1011  -13.9687   30.3441 C   0  0  0  0  0  0  0  0  0  0  0  0
   -7.0329  -14.5749   31.2548 N   0  0  0  0  0  0  0  0  0  0  0  0
   -7.5301  -15.4180   35.6091 H   0  0  0  0  0  0  0  0  0  0  0  0
   -6.9041  -16.9199   35.2414 H   0  0  0  0  0  0  0  0  0  0  0  0
   -6.1333  -15.5798   34.4535 H   0  0  0  0  0  0  0  0  0  0  0  0
   -9.0868  -15.8612   33.6864 H   0  0  0  0  0  0  0  0  0  0  0  0
   -9.0883  -17.6865   33.9896 H   0  0  0  0  0  0  0  0  0  0  0  0
   -7.7457  -20.7113   33.3072 H   0  0  0  0  0  0  0  0  0  0  0  0
   -7.7983  -19.8001   34.6278 H   0  0  0  0  0  0  0  0  0  0  0  0
   -9.9407  -19.8748   32.0783 H   0  0  0  0  0  0  0  0  0  0  0  0
  -10.4082  -18.9523   33.5907 H   0  0  0  0  0  0  0  0  0  0  0  0
  -12.1041  -20.4425   32.6412 H   0  0  0  0  0  0  0  0  0  0  0  0
  -11.7193  -20.9212   34.2202 H   0  0  0  0  0  0  0  0  0  0  0  0
  -11.8129  -23.3208   34.4839 H   0  0  0  0  0  0  0  0  0  0  0  0
  -11.0159  -25.9845   30.4618 H   0  0  0  0  0  0  0  0  0  0  0  0
  -11.2705  -24.9493   28.1923 H   0  0  0  0  0  0  0  0  0  0  0  0
  -11.6602  -22.5208   27.9821 H   0  0  0  0  0  0  0  0  0  0  0  0
  -11.6951  -21.0717   29.9701 H   0  0  0  0  0  0  0  0  0  0  0  0
   -8.3232  -12.8426   33.2169 H   0  0  0  0  0  0  0  0  0  0  0  0
   -6.1860  -11.4374   32.0434 H   0  0  0  0  0  0  0  0  0  0  0  0
   -4.7670  -12.2824   30.1481 H   0  0  0  0  0  0  0  0  0  0  0  0
   -6.0537  -14.4903   29.4250 H   0  0  0  0  0  0  0  0  0  0  0  0
  1  2  1  0
  2  3  1  0
  3  4  1  0
  4  5  2  0
  4  6  1  0
  6  7  1  0
  7  8  1  0
  8  9  1  0
  9 10  1  0
 10 11  2  0
 11 12  1  0
 12 13  2  0
 13 14  1  0
 14 15  2  0
 15 16  1  0
 16 17  2  0
  2 18  1  0
 18 19  2  0
 19 20  1  0
 20 21  2  0
 21 22  1  0
 22 23  2  0
 17  9  1  0
 23 18  1  0
 17 12  1  0
  1 24  1  0
  1 25  1  0
  1 26  1  0
  2 27  1  0
  3 28  1  0
  6 29  1  0
  6 30  1  0
  7 31  1  0
  7 32  1  0
  8 33  1  0
  8 34  1  0
 10 35  1  0
 13 36  1  0
 14 37  1  0
 15 38  1  0
 16 39  1  0
 19 40  1  0
 20 41  1  0
 21 42  1  0
 22 43  1  0
M  END
>  <Energy>  (549) 
318.2229219921511

>  <compound_id>  (549) 
29308

>  <target_id>  (549) 
1

>  <reference_id>  (549) 
94

>  <inspiration_ids>  (549) 
[94, 56]

>  <energy_score>  (549) 
276.44713687307376

>  <distance_score>  (549) 
5.397202192358448

>  <path>  (549) 
/opt/xchem-fragalysis-2/maxwin/BulkDock/SCRATCH/511024/C29308-P94/C29308-P94.minimised.mol

>  <scratch_subdir>  (549) 
/opt/xchem-fragalysis-2/maxwin/BulkDock/SCRATCH/511024/C29308-P94

>  <fragmenstein_runtime>  (549) 
14.634598970413208

>  <fragmenstein_outcome>  (549) 
too moved

>  <fragmenstein_mode>  (549) 
expansion

>  <fragmenstein_error>  (549) 


$$$$
C29308-P56
     RDKit          3D

 43 45  0  0  0  0  0  0  0  0999 V2000
   -3.9736  -14.0605   33.5814 C   0  0  0  0  0  0  0  0  0  0  0  0
   -4.6674  -12.6658   31.7587 C   0  0  0  0  0  0  0  0  0  0  0  0
   -6.7439  -12.9001   31.8517 N   0  0  0  0  0  0  0  0  0  0  0  0
   -7.8464  -14.3913   32.5307 C   0  0  0  0  0  0  0  0  0  0  0  0
   -7.3536  -15.4824   32.9628 O   0  0  0  0  0  0  0  0  0  0  0  0
   -9.3344  -14.5034   32.5158 C   0  0  0  0  0  0  0  0  0  0  0  0
  -10.4918  -15.4557   33.6371 C   0  0  0  0  0  0  0  0  0  0  0  0
  -10.2029  -16.8257   34.5607 C   0  0  0  0  0  0  0  0  0  0  0  0
  -11.4359  -17.5956   35.0608 N   0  0  0  0  0  0  0  0  0  0  0  0
  -12.2008  -17.2731   36.1561 C   0  0  0  0  0  0  0  0  0  0  0  0
  -13.3815  -17.8558   36.1533 N   0  0  0  0  0  0  0  0  0  0  0  0
  -13.2873  -18.8256   35.2013 C   0  0  0  0  0  0  0  0  0  0  0  0
  -14.2321  -19.7936   34.7980 C   0  0  0  0  0  0  0  0  0  0  0  0
  -13.8330  -20.8742   33.9985 C   0  0  0  0  0  0  0  0  0  0  0  0
  -12.5404  -20.9196   33.5060 C   0  0  0  0  0  0  0  0  0  0  0  0
  -11.6793  -19.8249   33.7192 C   0  0  0  0  0  0  0  0  0  0  0  0
  -12.0301  -18.7944   34.6110 C   0  0  0  0  0  0  0  0  0  0  0  0
   -3.9724  -10.8141   31.7962 C   0  0  0  0  0  0  0  0  0  0  0  0
   -4.4509   -9.8316   32.7149 C   0  0  0  0  0  0  0  0  0  0  0  0
   -3.5311   -8.9940   33.3784 C   0  0  0  0  0  0  0  0  0  0  0  0
   -2.2581   -8.8034   32.8983 C   0  0  0  0  0  0  0  0  0  0  0  0
   -1.9211   -9.5720   31.8245 C   0  0  0  0  0  0  0  0  0  0  0  0
   -2.6839  -10.5837   31.3147 N   0  0  0  0  0  0  0  0  0  0  0  0
   -3.8750  -13.6384   34.6687 H   0  0  0  0  0  0  0  0  0  0  0  0
   -4.7925  -14.7984   34.0346 H   0  0  0  0  0  0  0  0  0  0  0  0
   -3.0293  -14.8189   33.4901 H   0  0  0  0  0  0  0  0  0  0  0  0
   -3.9204  -13.6712   32.9962 H   0  0  0  0  0  0  0  0  0  0  0  0
   -7.3195  -12.1286   31.6564 H   0  0  0  0  0  0  0  0  0  0  0  0
   -9.5732  -13.5420   32.9434 H   0  0  0  0  0  0  0  0  0  0  0  0
   -9.1756  -15.5717   32.5243 H   0  0  0  0  0  0  0  0  0  0  0  0
  -11.4765  -15.3956   33.1510 H   0  0  0  0  0  0  0  0  0  0  0  0
  -10.7049  -14.8342   34.4377 H   0  0  0  0  0  0  0  0  0  0  0  0
   -9.5732  -17.5386   34.0275 H   0  0  0  0  0  0  0  0  0  0  0  0
   -9.6609  -16.5454   35.4717 H   0  0  0  0  0  0  0  0  0  0  0  0
  -11.8729  -16.6043   36.9320 H   0  0  0  0  0  0  0  0  0  0  0  0
  -15.2363  -19.7623   35.2071 H   0  0  0  0  0  0  0  0  0  0  0  0
  -14.5291  -21.6818   33.7833 H   0  0  0  0  0  0  0  0  0  0  0  0
  -12.2312  -21.7503   32.8764 H   0  0  0  0  0  0  0  0  0  0  0  0
  -10.7450  -19.7651   33.1743 H   0  0  0  0  0  0  0  0  0  0  0  0
   -5.4006   -9.9416   33.1884 H   0  0  0  0  0  0  0  0  0  0  0  0
   -3.8325   -8.5244   34.3141 H   0  0  0  0  0  0  0  0  0  0  0  0
   -1.5762   -8.0858   33.3348 H   0  0  0  0  0  0  0  0  0  0  0  0
   -1.0098   -9.3886   31.2769 H   0  0  0  0  0  0  0  0  0  0  0  0
  1  2  1  0
  2  3  1  0
  3  4  1  0
  4  5  2  0
  4  6  1  0
  6  7  1  0
  7  8  1  0
  8  9  1  0
  9 10  1  0
 10 11  2  0
 11 12  1  0
 12 13  2  0
 13 14  1  0
 14 15  2  0
 15 16  1  0
 16 17  2  0
  2 18  1  0
 18 19  2  0
 19 20  1  0
 20 21  2  0
 21 22  1  0
 22 23  2  0
 17  9  1  0
 23 18  1  0
 17 12  1  0
  1 24  1  0
  1 25  1  0
  1 26  1  0
  2 27  1  0
  3 28  1  0
  6 29  1  0
  6 30  1  0
  7 31  1  0
  7 32  1  0
  8 33  1  0
  8 34  1  0
 10 35  1  0
 13 36  1  0
 14 37  1  0
 15 38  1  0
 16 39  1  0
 19 40  1  0
 20 41  1  0
 21 42  1  0
 22 43  1  0
M  END
>  <Energy>  (550) 
1054.8323696989337

>  <compound_id>  (550) 
29308

>  <target_id>  (550) 
1

>  <reference_id>  (550) 
56

>  <inspiration_ids>  (550) 
[94, 56]

>  <energy_score>  (550) 
1013.0565845798666

>  <distance_score>  (550) 
5.929451492584072

>  <path>  (550) 
/opt/xchem-fragalysis-2/maxwin/BulkDock/SCRATCH/511024/C29308-P56/C29308-P56.minimised.mol

>  <scratch_subdir>  (550) 
/opt/xchem-fragalysis-2/maxwin/BulkDock/SCRATCH/511024/C29308-P56

>  <fragmenstein_runtime>  (550) 
16.933932781219482

>  <fragmenstein_outcome>  (550) 
too moved

>  <fragmenstein_mode>  (550) 
expansion

>  <fragmenstein_error>  (550) 


$$$$
C29309-P94
     RDKit          3D

 39 41  0  0  0  0  0  0  0  0999 V2000
  -10.4291  -15.3674   33.1148 C   0  0  0  0  0  0  0  0  0  0  0  0
   -9.0590  -15.8000   33.0766 N   0  0  0  0  0  0  0  0  0  0  0  0
   -7.6932  -14.9856   32.8057 C   0  0  0  0  0  0  0  0  0  0  0  0
   -7.0655  -13.1188   32.2446 C   0  0  0  0  0  0  0  0  0  0  0  0
   -6.0409  -11.3927   32.0913 N   0  0  0  0  0  0  0  0  0  0  0  0
   -5.0129  -10.0626   33.1576 C   0  0  0  0  0  0  0  0  0  0  0  0
   -4.3386  -10.0639   34.9839 C   0  0  0  0  0  0  0  0  0  0  0  0
   -4.7270   -8.8581   35.6929 N   0  0  0  0  0  0  0  0  0  0  0  0
   -3.6259  -10.9807   35.3263 O   0  0  0  0  0  0  0  0  0  0  0  0
   -3.5235   -9.0893   32.7220 C   0  0  0  0  0  0  0  0  0  0  0  0
   -2.6009   -8.6693   33.7604 C   0  0  0  0  0  0  0  0  0  0  0  0
   -1.5974   -7.6801   33.6618 C   0  0  0  0  0  0  0  0  0  0  0  0
   -1.3140   -7.1502   32.4553 C   0  0  0  0  0  0  0  0  0  0  0  0
   -2.1086   -7.6295   31.4613 C   0  0  0  0  0  0  0  0  0  0  0  0
   -3.1911   -8.5425   31.5517 N   0  0  0  0  0  0  0  0  0  0  0  0
   -6.8422  -15.9748   33.3674 N   0  0  0  0  0  0  0  0  0  0  0  0
   -7.5168  -16.7810   34.2788 C   0  0  0  0  0  0  0  0  0  0  0  0
   -7.1055  -17.5365   35.3644 C   0  0  0  0  0  0  0  0  0  0  0  0
   -7.9204  -17.5660   36.4988 C   0  0  0  0  0  0  0  0  0  0  0  0
   -9.2593  -17.2918   36.4053 C   0  0  0  0  0  0  0  0  0  0  0  0
   -9.7737  -17.1182   35.1460 C   0  0  0  0  0  0  0  0  0  0  0  0
   -8.8618  -16.6767   34.1612 C   0  0  0  0  0  0  0  0  0  0  0  0
  -10.9984  -15.5099   32.2012 H   0  0  0  0  0  0  0  0  0  0  0  0
  -10.3731  -14.3723   33.4044 H   0  0  0  0  0  0  0  0  0  0  0  0
  -11.0788  -15.7199   33.9065 H   0  0  0  0  0  0  0  0  0  0  0  0
   -7.9789  -12.9100   32.9402 H   0  0  0  0  0  0  0  0  0  0  0  0
   -6.8620  -13.5432   31.2385 H   0  0  0  0  0  0  0  0  0  0  0  0
   -5.3211  -11.6920   31.4167 H   0  0  0  0  0  0  0  0  0  0  0  0
   -5.7542   -9.5135   33.6672 H   0  0  0  0  0  0  0  0  0  0  0  0
   -5.2525   -8.2431   35.0467 H   0  0  0  0  0  0  0  0  0  0  0  0
   -5.4325   -8.3617   35.1420 H   0  0  0  0  0  0  0  0  0  0  0  0
   -2.5750   -9.0354   34.7757 H   0  0  0  0  0  0  0  0  0  0  0  0
   -1.0422   -7.3648   34.5407 H   0  0  0  0  0  0  0  0  0  0  0  0
   -0.5258   -6.4283   32.2929 H   0  0  0  0  0  0  0  0  0  0  0  0
   -1.9090   -7.2245   30.4695 H   0  0  0  0  0  0  0  0  0  0  0  0
   -6.1235  -17.9175   35.4765 H   0  0  0  0  0  0  0  0  0  0  0  0
   -7.5159  -17.9011   37.4481 H   0  0  0  0  0  0  0  0  0  0  0  0
   -9.9158  -17.3874   37.2633 H   0  0  0  0  0  0  0  0  0  0  0  0
  -10.8495  -17.1335   35.0345 H   0  0  0  0  0  0  0  0  0  0  0  0
  1  2  1  0
  2  3  1  0
  3  4  1  0
  4  5  1  0
  5  6  1  0
  6  7  1  0
  7  8  1  0
  7  9  2  0
  6 10  1  0
 10 11  2  0
 11 12  1  0
 12 13  2  0
 13 14  1  0
 14 15  2  0
  3 16  2  0
 16 17  1  0
 17 18  2  0
 18 19  1  0
 19 20  2  0
 20 21  1  0
 21 22  2  0
 22  2  1  0
 15 10  1  0
 22 17  1  0
  1 23  1  0
  1 24  1  0
  1 25  1  0
  4 26  1  0
  4 27  1  0
  5 28  1  0
  6 29  1  0
  8 30  1  0
  8 31  1  0
 11 32  1  0
 12 33  1  0
 13 34  1  0
 14 35  1  0
 18 36  1  0
 19 37  1  0
 20 38  1  0
 21 39  1  0
M  END
>  <Energy>  (551) 
850.44672608316432

>  <compound_id>  (551) 
29309

>  <target_id>  (551) 
1

>  <reference_id>  (551) 
94

>  <inspiration_ids>  (551) 
[94, 56]

>  <energy_score>  (551) 
723.2770968874848

>  <distance_score>  (551) 
7.261368759616789

>  <path>  (551) 
/opt/xchem-fragalysis-2/maxwin/BulkDock/SCRATCH/511024/C29309-P94/C29309-P94.minimised.mol

>  <scratch_subdir>  (551) 
/opt/xchem-fragalysis-2/maxwin/BulkDock/SCRATCH/511024/C29309-P94

>  <fragmenstein_runtime>  (551) 
16.31617522239685

>  <fragmenstein_outcome>  (551) 
too moved

>  <fragmenstein_mode>  (551) 
expansion

>  <fragmenstein_error>  (551) 


$$$$
C29309-P56
     RDKit          3D

 39 41  0  0  0  0  0  0  0  0999 V2000
  -12.0482  -17.2814   36.8367 C   0  0  0  0  0  0  0  0  0  0  0  0
  -12.0420  -17.7485   35.4800 N   0  0  0  0  0  0  0  0  0  0  0  0
  -10.9384  -17.8427   34.6478 C   0  0  0  0  0  0  0  0  0  0  0  0
   -9.6565  -16.7897   34.3267 C   0  0  0  0  0  0  0  0  0  0  0  0
   -9.5327  -15.6887   33.0445 N   0  0  0  0  0  0  0  0  0  0  0  0
   -8.0041  -15.0493   32.5307 C   0  0  0  0  0  0  0  0  0  0  0  0
   -6.8997  -16.1137   33.3655 C   0  0  0  0  0  0  0  0  0  0  0  0
   -7.1452  -15.9597   34.7651 N   0  0  0  0  0  0  0  0  0  0  0  0
   -6.1254  -16.8146   32.7842 O   0  0  0  0  0  0  0  0  0  0  0  0
   -7.1546  -13.8737   31.2042 C   0  0  0  0  0  0  0  0  0  0  0  0
   -6.8351  -12.3025   31.8377 C   0  0  0  0  0  0  0  0  0  0  0  0
   -5.7712  -11.4246   31.5356 C   0  0  0  0  0  0  0  0  0  0  0  0
   -4.8980  -11.9817   30.6712 C   0  0  0  0  0  0  0  0  0  0  0  0
   -5.2456  -13.1312   30.0496 C   0  0  0  0  0  0  0  0  0  0  0  0
   -6.2676  -14.1159   30.2166 N   0  0  0  0  0  0  0  0  0  0  0  0
  -11.0347  -19.0529   34.0566 N   0  0  0  0  0  0  0  0  0  0  0  0
  -12.2636  -19.5865   34.3292 C   0  0  0  0  0  0  0  0  0  0  0  0
  -12.8496  -20.7864   33.8807 C   0  0  0  0  0  0  0  0  0  0  0  0
  -14.2354  -20.9205   34.0129 C   0  0  0  0  0  0  0  0  0  0  0  0
  -14.9879  -19.9249   34.6420 C   0  0  0  0  0  0  0  0  0  0  0  0
  -14.3787  -18.8011   35.2296 C   0  0  0  0  0  0  0  0  0  0  0  0
  -13.0007  -18.6597   35.0412 C   0  0  0  0  0  0  0  0  0  0  0  0
  -11.0484  -16.9531   37.1254 H   0  0  0  0  0  0  0  0  0  0  0  0
  -12.3414  -18.1021   37.4983 H   0  0  0  0  0  0  0  0  0  0  0  0
  -12.7796  -16.4784   36.9161 H   0  0  0  0  0  0  0  0  0  0  0  0
   -9.5659  -16.2458   35.2657 H   0  0  0  0  0  0  0  0  0  0  0  0
   -8.8316  -17.4873   34.1712 H   0  0  0  0  0  0  0  0  0  0  0  0
   -9.9858  -14.8675   33.4346 H   0  0  0  0  0  0  0  0  0  0  0  0
   -8.0337  -14.0792   32.9348 H   0  0  0  0  0  0  0  0  0  0  0  0
   -7.9658  -15.3513   34.8951 H   0  0  0  0  0  0  0  0  0  0  0  0
   -7.8038  -15.1817   34.9046 H   0  0  0  0  0  0  0  0  0  0  0  0
   -7.6562  -11.7381   32.3077 H   0  0  0  0  0  0  0  0  0  0  0  0
   -5.5110  -10.5829   32.1468 H   0  0  0  0  0  0  0  0  0  0  0  0
   -3.8544  -11.6953   30.5656 H   0  0  0  0  0  0  0  0  0  0  0  0
   -4.2704  -13.4514   29.7395 H   0  0  0  0  0  0  0  0  0  0  0  0
  -12.2671  -21.5287   33.3468 H   0  0  0  0  0  0  0  0  0  0  0  0
  -14.7274  -21.8116   33.6327 H   0  0  0  0  0  0  0  0  0  0  0  0
  -16.0626  -20.0655   34.7431 H   0  0  0  0  0  0  0  0  0  0  0  0
  -14.9590  -18.0740   35.7853 H   0  0  0  0  0  0  0  0  0  0  0  0
  1  2  1  0
  2  3  1  0
  3  4  1  0
  4  5  1  0
  5  6  1  0
  6  7  1  0
  7  8  1  0
  7  9  2  0
  6 10  1  0
 10 11  2  0
 11 12  1  0
 12 13  2  0
 13 14  1  0
 14 15  2  0
  3 16  2  0
 16 17  1  0
 17 18  2  0
 18 19  1  0
 19 20  2  0
 20 21  1  0
 21 22  2  0
 22  2  1  0
 15 10  1  0
 22 17  1  0
  1 23  1  0
  1 24  1  0
  1 25  1  0
  4 26  1  0
  4 27  1  0
  5 28  1  0
  6 29  1  0
  8 30  1  0
  8 31  1  0
 11 32  1  0
 12 33  1  0
 13 34  1  0
 14 35  1  0
 18 36  1  0
 19 37  1  0
 20 38  1  0
 21 39  1  0
M  END
>  <Energy>  (552) 
538.36218610447565

>  <compound_id>  (552) 
29309

>  <target_id>  (552) 
1

>  <reference_id>  (552) 
56

>  <inspiration_ids>  (552) 
[94, 56]

>  <energy_score>  (552) 
411.1925569087977

>  <distance_score>  (552) 
7.016230455828607

>  <path>  (552) 
/opt/xchem-fragalysis-2/maxwin/BulkDock/SCRATCH/511024/C29309-P56/C29309-P56.minimised.mol

>  <scratch_subdir>  (552) 
/opt/xchem-fragalysis-2/maxwin/BulkDock/SCRATCH/511024/C29309-P56

>  <fragmenstein_runtime>  (552) 
14.598766565322876

>  <fragmenstein_outcome>  (552) 
too moved

>  <fragmenstein_mode>  (552) 
expansion

>  <fragmenstein_error>  (552) 


$$$$
C16015-P94
     RDKit          3D

 34 36  0  0  0  0  0  0  0  0999 V2000
   -6.8249  -17.0649   33.7770 C   0  0  0  0  0  0  0  0  0  0  0  0
   -7.2405  -15.9776   34.6465 N   0  0  0  0  0  0  0  0  0  0  0  0
   -5.5940  -15.4094   34.3173 C   0  0  0  0  0  0  0  0  0  0  0  0
   -4.0177  -14.4708   34.9372 C   0  0  0  0  0  0  0  0  0  0  0  0
   -4.0420  -13.1674   35.5316 C   0  0  0  0  0  0  0  0  0  0  0  0
   -3.2043  -11.7226   35.4061 C   0  0  0  0  0  0  0  0  0  0  0  0
   -2.1224  -11.7216   34.4876 C   0  0  0  0  0  0  0  0  0  0  0  0
   -1.7193  -13.1321   33.8110 N   0  0  0  0  0  0  0  0  0  0  0  0
   -2.6620  -14.4231   34.0588 C   0  0  0  0  0  0  0  0  0  0  0  0
   -7.8374  -16.5193   35.8671 C   0  0  0  0  0  0  0  0  0  0  0  0
   -7.3365  -16.7975   36.9219 O   0  0  0  0  0  0  0  0  0  0  0  0
   -9.2679  -16.8994   35.8145 C   0  0  0  0  0  0  0  0  0  0  0  0
   -9.9479  -17.3985   34.7987 N   0  0  0  0  0  0  0  0  0  0  0  0
  -11.1453  -17.8830   35.3179 C   0  0  0  0  0  0  0  0  0  0  0  0
  -12.1490  -18.6906   34.7557 C   0  0  0  0  0  0  0  0  0  0  0  0
  -13.3669  -18.8377   35.4124 C   0  0  0  0  0  0  0  0  0  0  0  0
  -13.5215  -18.2953   36.6838 C   0  0  0  0  0  0  0  0  0  0  0  0
  -15.2142  -18.3625   37.5364 Br  0  0  0  0  0  0  0  0  0  0  0  0
  -12.4482  -17.7147   37.3729 C   0  0  0  0  0  0  0  0  0  0  0  0
  -11.2689  -17.5401   36.6493 C   0  0  0  0  0  0  0  0  0  0  0  0
  -10.0179  -17.0797   36.9701 N   0  0  0  0  0  0  0  0  0  0  0  0
   -6.3880  -16.9182   32.7909 H   0  0  0  0  0  0  0  0  0  0  0  0
   -7.7748  -17.5251   33.5048 H   0  0  0  0  0  0  0  0  0  0  0  0
   -6.4436  -17.8699   34.3903 H   0  0  0  0  0  0  0  0  0  0  0  0
   -5.1285  -16.0511   33.5754 H   0  0  0  0  0  0  0  0  0  0  0  0
   -5.6759  -15.3867   35.3802 H   0  0  0  0  0  0  0  0  0  0  0  0
   -3.7001  -13.0385   34.5727 H   0  0  0  0  0  0  0  0  0  0  0  0
   -3.5941  -10.7656   35.7256 H   0  0  0  0  0  0  0  0  0  0  0  0
   -1.5590  -10.8438   34.2564 H   0  0  0  0  0  0  0  0  0  0  0  0
   -2.3251  -15.1925   33.3787 H   0  0  0  0  0  0  0  0  0  0  0  0
  -11.9651  -19.1709   33.8091 H   0  0  0  0  0  0  0  0  0  0  0  0
  -14.1729  -19.3820   34.9312 H   0  0  0  0  0  0  0  0  0  0  0  0
  -12.5390  -17.3778   38.3991 H   0  0  0  0  0  0  0  0  0  0  0  0
   -9.6686  -16.8546   37.8897 H   0  0  0  0  0  0  0  0  0  0  0  0
  1  2  1  0
  2  3  1  0
  3  4  1  0
  4  5  2  0
  5  6  1  0
  6  7  2  0
  7  8  1  0
  8  9  2  0
  2 10  1  0
 10 11  2  0
 10 12  1  0
 12 13  2  0
 13 14  1  0
 14 15  2  0
 15 16  1  0
 16 17  2  0
 17 18  1  0
 17 19  1  0
 19 20  2  0
 20 21  1  0
  9  4  1  0
 21 12  1  0
 20 14  1  0
  1 22  1  0
  1 23  1  0
  1 24  1  0
  3 25  1  0
  3 26  1  0
  5 27  1  0
  6 28  1  0
  7 29  1  0
  9 30  1  0
 15 31  1  0
 16 32  1  0
 19 33  1  0
 21 34  1  0
M  END
>  <Energy>  (553) 
469.01541485918784

>  <compound_id>  (553) 
16015

>  <target_id>  (553) 
1

>  <reference_id>  (553) 
94

>  <inspiration_ids>  (553) 
[94, 56]

>  <energy_score>  (553) 
398.2648476614767

>  <distance_score>  (553) 
7.771816969829327

>  <path>  (553) 
/opt/xchem-fragalysis-2/maxwin/BulkDock/SCRATCH/511024/C16015-P94/C16015-P94.minimised.mol

>  <scratch_subdir>  (553) 
/opt/xchem-fragalysis-2/maxwin/BulkDock/SCRATCH/511024/C16015-P94

>  <fragmenstein_runtime>  (553) 
16.42475438117981

>  <fragmenstein_outcome>  (553) 
too moved

>  <fragmenstein_mode>  (553) 
expansion

>  <fragmenstein_error>  (553) 


$$$$
C16015-P56
     RDKit          3D

 34 36  0  0  0  0  0  0  0  0999 V2000
   -3.9862  -14.6318   36.0130 C   0  0  0  0  0  0  0  0  0  0  0  0
   -4.8614  -14.1189   35.1567 N   0  0  0  0  0  0  0  0  0  0  0  0
   -3.7250  -13.3176   34.8167 C   0  0  0  0  0  0  0  0  0  0  0  0
   -2.8789  -11.4574   35.2390 C   0  0  0  0  0  0  0  0  0  0  0  0
   -3.5514  -10.1000   35.4378 C   0  0  0  0  0  0  0  0  0  0  0  0
   -3.0381   -8.7951   35.1694 C   0  0  0  0  0  0  0  0  0  0  0  0
   -1.8321   -8.6385   34.5661 C   0  0  0  0  0  0  0  0  0  0  0  0
   -1.1688   -9.7017   34.1528 N   0  0  0  0  0  0  0  0  0  0  0  0
   -1.7085  -10.9646   34.4453 C   0  0  0  0  0  0  0  0  0  0  0  0
   -5.7045  -15.4260   34.2308 C   0  0  0  0  0  0  0  0  0  0  0  0
   -5.4112  -15.9553   33.1568 O   0  0  0  0  0  0  0  0  0  0  0  0
   -7.1488  -16.0427   34.7919 C   0  0  0  0  0  0  0  0  0  0  0  0
   -8.0329  -16.8146   34.1341 N   0  0  0  0  0  0  0  0  0  0  0  0
   -9.1560  -16.9416   34.9830 C   0  0  0  0  0  0  0  0  0  0  0  0
  -10.4671  -17.4655   34.8963 C   0  0  0  0  0  0  0  0  0  0  0  0
  -11.3734  -17.5712   35.9717 C   0  0  0  0  0  0  0  0  0  0  0  0
  -10.9198  -17.2364   37.2308 C   0  0  0  0  0  0  0  0  0  0  0  0
  -12.0579  -17.4022   38.7310 Br  0  0  0  0  0  0  0  0  0  0  0  0
   -9.6121  -16.7599   37.4111 C   0  0  0  0  0  0  0  0  0  0  0  0
   -8.8188  -16.5902   36.2619 C   0  0  0  0  0  0  0  0  0  0  0  0
   -7.7113  -15.8548   36.0205 N   0  0  0  0  0  0  0  0  0  0  0  0
   -3.5986  -14.0403   36.8137 H   0  0  0  0  0  0  0  0  0  0  0  0
   -4.7383  -15.1693   36.5400 H   0  0  0  0  0  0  0  0  0  0  0  0
   -3.1751  -15.0787   35.5053 H   0  0  0  0  0  0  0  0  0  0  0  0
   -4.3654  -12.5446   35.0600 H   0  0  0  0  0  0  0  0  0  0  0  0
   -3.2250  -13.8806   34.0336 H   0  0  0  0  0  0  0  0  0  0  0  0
   -4.6170   -9.9480   35.6123 H   0  0  0  0  0  0  0  0  0  0  0  0
   -3.6496   -7.9270   35.3494 H   0  0  0  0  0  0  0  0  0  0  0  0
   -1.4117   -7.6662   34.3399 H   0  0  0  0  0  0  0  0  0  0  0  0
   -1.1331  -11.6177   33.8305 H   0  0  0  0  0  0  0  0  0  0  0  0
  -10.6418  -18.1770   34.1043 H   0  0  0  0  0  0  0  0  0  0  0  0
  -12.3360  -18.0469   35.8175 H   0  0  0  0  0  0  0  0  0  0  0  0
   -9.2533  -16.4501   38.3872 H   0  0  0  0  0  0  0  0  0  0  0  0
   -7.7240  -14.9273   36.3607 H   0  0  0  0  0  0  0  0  0  0  0  0
  1  2  1  0
  2  3  1  0
  3  4  1  0
  4  5  2  0
  5  6  1  0
  6  7  2  0
  7  8  1  0
  8  9  2  0
  2 10  1  0
 10 11  2  0
 10 12  1  0
 12 13  2  0
 13 14  1  0
 14 15  2  0
 15 16  1  0
 16 17  2  0
 17 18  1  0
 17 19  1  0
 19 20  2  0
 20 21  1  0
  9  4  1  0
 21 12  1  0
 20 14  1  0
  1 22  1  0
  1 23  1  0
  1 24  1  0
  3 25  1  0
  3 26  1  0
  5 27  1  0
  6 28  1  0
  7 29  1  0
  9 30  1  0
 15 31  1  0
 16 32  1  0
 19 33  1  0
 21 34  1  0
M  END
>  <Energy>  (554) 
426.05312323227719

>  <compound_id>  (554) 
16015

>  <target_id>  (554) 
1

>  <reference_id>  (554) 
56

>  <inspiration_ids>  (554) 
[94, 56]

>  <energy_score>  (554) 
355.3025560345535

>  <distance_score>  (554) 
7.843144465816417

>  <path>  (554) 
/opt/xchem-fragalysis-2/maxwin/BulkDock/SCRATCH/511024/C16015-P56/C16015-P56.minimised.mol

>  <scratch_subdir>  (554) 
/opt/xchem-fragalysis-2/maxwin/BulkDock/SCRATCH/511024/C16015-P56

>  <fragmenstein_runtime>  (554) 
13.972594976425171

>  <fragmenstein_outcome>  (554) 
too moved

>  <fragmenstein_mode>  (554) 
expansion

>  <fragmenstein_error>  (554) 


$$$$
C16017-P94
     RDKit          3D

 51 54  0  0  0  0  0  0  0  0999 V2000
   -0.9514   -8.6767   33.4001 O   0  0  0  0  0  0  0  0  0  0  0  0
   -1.6158   -8.8828   34.3635 C   0  0  0  0  0  0  0  0  0  0  0  0
   -2.2310  -10.4230   34.7696 N   0  0  0  0  0  0  0  0  0  0  0  0
   -2.0692  -12.0536   33.9368 C   0  0  0  0  0  0  0  0  0  0  0  0
   -3.6412  -13.4648   33.4159 C   0  0  0  0  0  0  0  0  0  0  0  0
   -4.3886  -12.8089   31.8218 O   0  0  0  0  0  0  0  0  0  0  0  0
   -4.2287  -14.7506   34.3773 N   0  0  0  0  0  0  0  0  0  0  0  0
   -5.8273  -15.8280   34.2791 C   0  0  0  0  0  0  0  0  0  0  0  0
   -6.7470  -16.9101   35.2069 C   0  0  0  0  0  0  0  0  0  0  0  0
   -8.2608  -16.9183   35.4199 C   0  0  0  0  0  0  0  0  0  0  0  0
   -9.2666  -17.2223   34.6120 N   0  0  0  0  0  0  0  0  0  0  0  0
  -10.3894  -17.4873   35.4221 C   0  0  0  0  0  0  0  0  0  0  0  0
  -11.6625  -18.0479   35.1641 C   0  0  0  0  0  0  0  0  0  0  0  0
  -12.5878  -18.2443   36.1887 C   0  0  0  0  0  0  0  0  0  0  0  0
  -12.2446  -17.9334   37.4946 C   0  0  0  0  0  0  0  0  0  0  0  0
  -10.9594  -17.4872   37.8133 C   0  0  0  0  0  0  0  0  0  0  0  0
  -10.0570  -17.3071   36.7567 C   0  0  0  0  0  0  0  0  0  0  0  0
   -8.7218  -16.9771   36.7281 N   0  0  0  0  0  0  0  0  0  0  0  0
   -2.3256  -10.3927   32.6291 C   0  0  0  0  0  0  0  0  0  0  0  0
   -1.7985  -10.2114   31.2196 C   0  0  0  0  0  0  0  0  0  0  0  0
   -1.1930   -8.9290   30.6777 C   0  0  0  0  0  0  0  0  0  0  0  0
   -1.6116   -7.7584   31.1860 C   0  0  0  0  0  0  0  0  0  0  0  0
   -2.6905   -7.9577   32.0382 C   0  0  0  0  0  0  0  0  0  0  0  0
   -3.1968   -9.2324   32.6573 C   0  0  0  0  0  0  0  0  0  0  0  0
   -1.6860   -7.6889   35.1392 C   0  0  0  0  0  0  0  0  0  0  0  0
   -0.4965   -6.8430   34.8675 C   0  0  0  0  0  0  0  0  0  0  0  0
   -0.3190   -5.5195   35.1846 C   0  0  0  0  0  0  0  0  0  0  0  0
   -1.3735   -5.0048   35.8231 C   0  0  0  0  0  0  0  0  0  0  0  0
   -2.4654   -5.7482   36.0774 N   0  0  0  0  0  0  0  0  0  0  0  0
   -2.6647   -7.0268   35.6442 C   0  0  0  0  0  0  0  0  0  0  0  0
   -2.8340  -10.3300   35.5840 H   0  0  0  0  0  0  0  0  0  0  0  0
   -1.0660  -12.4002   33.6270 H   0  0  0  0  0  0  0  0  0  0  0  0
   -3.6411  -14.7769   35.2052 H   0  0  0  0  0  0  0  0  0  0  0  0
   -5.6749  -16.3455   33.3157 H   0  0  0  0  0  0  0  0  0  0  0  0
   -6.6495  -15.1499   34.1290 H   0  0  0  0  0  0  0  0  0  0  0  0
   -6.4077  -16.8513   36.2218 H   0  0  0  0  0  0  0  0  0  0  0  0
   -6.5508  -17.9169   34.8346 H   0  0  0  0  0  0  0  0  0  0  0  0
  -11.9319  -18.4211   34.1910 H   0  0  0  0  0  0  0  0  0  0  0  0
  -13.5617  -18.6666   35.9609 H   0  0  0  0  0  0  0  0  0  0  0  0
  -12.9689  -18.0869   38.2909 H   0  0  0  0  0  0  0  0  0  0  0  0
  -10.6712  -17.3105   38.8437 H   0  0  0  0  0  0  0  0  0  0  0  0
   -8.1310  -16.9108   37.5420 H   0  0  0  0  0  0  0  0  0  0  0  0
   -1.4736  -11.0510   30.5954 H   0  0  0  0  0  0  0  0  0  0  0  0
   -0.4948   -8.9731   29.8382 H   0  0  0  0  0  0  0  0  0  0  0  0
   -1.1875   -6.7992   30.9366 H   0  0  0  0  0  0  0  0  0  0  0  0
   -2.8021   -7.0332   32.5732 H   0  0  0  0  0  0  0  0  0  0  0  0
   -3.9791   -9.1136   33.4086 H   0  0  0  0  0  0  0  0  0  0  0  0
    0.3489   -7.2487   34.3137 H   0  0  0  0  0  0  0  0  0  0  0  0
    0.5650   -4.9593   34.9243 H   0  0  0  0  0  0  0  0  0  0  0  0
   -1.4318   -3.9662   36.1181 H   0  0  0  0  0  0  0  0  0  0  0  0
   -3.6405   -7.4775   35.6258 H   0  0  0  0  0  0  0  0  0  0  0  0
  1  2  2  0
  2  3  1  0
  3  4  1  0
  4  5  1  0
  5  6  2  0
  5  7  1  0
  7  8  1  0
  8  9  1  0
  9 10  1  0
 10 11  2  0
 11 12  1  0
 12 13  2  0
 13 14  1  0
 14 15  2  0
 15 16  1  0
 16 17  2  0
 17 18  1  0
  4 19  1  0
 19 20  2  0
 20 21  1  0
 21 22  2  0
 22 23  1  0
 23 24  2  0
  2 25  1  0
 25 26  2  0
 26 27  1  0
 27 28  2  0
 28 29  1  0
 29 30  2  0
 18 10  1  0
 24 19  1  0
 30 25  1  0
 17 12  1  0
  3 31  1  0
  4 32  1  0
  7 33  1  0
  8 34  1  0
  8 35  1  0
  9 36  1  0
  9 37  1  0
 13 38  1  0
 14 39  1  0
 15 40  1  0
 16 41  1  0
 18 42  1  0
 20 43  1  0
 21 44  1  0
 22 45  1  0
 23 46  1  0
 24 47  1  0
 26 48  1  0
 27 49  1  0
 28 50  1  0
 30 51  1  0
M  END
>  <Energy>  (555) 
1006.6702203763923

>  <compound_id>  (555) 
16017

>  <target_id>  (555) 
1

>  <reference_id>  (555) 
94

>  <inspiration_ids>  (555) 
[94, 56]

>  <energy_score>  (555) 
901.886451427513

>  <distance_score>  (555) 
7.068294677292069

>  <path>  (555) 
/opt/xchem-fragalysis-2/maxwin/BulkDock/SCRATCH/511024/C16017-P94/C16017-P94.minimised.mol

>  <scratch_subdir>  (555) 
/opt/xchem-fragalysis-2/maxwin/BulkDock/SCRATCH/511024/C16017-P94

>  <fragmenstein_runtime>  (555) 
61.41133165359497

>  <fragmenstein_outcome>  (555) 
too moved

>  <fragmenstein_mode>  (555) 
expansion

>  <fragmenstein_error>  (555) 


$$$$
C16017-P56
     RDKit          3D

 51 54  0  0  0  0  0  0  0  0999 V2000
   -3.4868   -9.8452   31.9252 O   0  0  0  0  0  0  0  0  0  0  0  0
   -4.3840   -9.7105   32.7495 C   0  0  0  0  0  0  0  0  0  0  0  0
   -5.9030  -10.5883   32.9470 N   0  0  0  0  0  0  0  0  0  0  0  0
   -6.6763  -12.2351   32.0066 C   0  0  0  0  0  0  0  0  0  0  0  0
   -7.8461  -14.0396   32.5608 C   0  0  0  0  0  0  0  0  0  0  0  0
   -8.8897  -14.2814   32.0856 O   0  0  0  0  0  0  0  0  0  0  0  0
   -7.2306  -15.3584   33.6735 N   0  0  0  0  0  0  0  0  0  0  0  0
   -7.8884  -16.7097   34.1930 C   0  0  0  0  0  0  0  0  0  0  0  0
   -9.4441  -16.5953   34.6219 C   0  0  0  0  0  0  0  0  0  0  0  0
  -10.6203  -17.6455   34.7569 C   0  0  0  0  0  0  0  0  0  0  0  0
  -10.7885  -18.8257   34.1323 N   0  0  0  0  0  0  0  0  0  0  0  0
  -12.0481  -19.3137   34.4211 C   0  0  0  0  0  0  0  0  0  0  0  0
  -12.6682  -20.5160   34.0165 C   0  0  0  0  0  0  0  0  0  0  0  0
  -14.0526  -20.6321   34.1708 C   0  0  0  0  0  0  0  0  0  0  0  0
  -14.7742  -19.6042   34.7839 C   0  0  0  0  0  0  0  0  0  0  0  0
  -14.1384  -18.4632   35.3130 C   0  0  0  0  0  0  0  0  0  0  0  0
  -12.7605  -18.3501   35.1091 C   0  0  0  0  0  0  0  0  0  0  0  0
  -11.8248  -17.3705   35.4055 N   0  0  0  0  0  0  0  0  0  0  0  0
   -5.4434  -12.1862   30.8682 C   0  0  0  0  0  0  0  0  0  0  0  0
   -5.3490  -12.3496   29.6021 C   0  0  0  0  0  0  0  0  0  0  0  0
   -4.6513  -13.3272   29.8521 C   0  0  0  0  0  0  0  0  0  0  0  0
   -3.3691  -12.8691   29.6722 C   0  0  0  0  0  0  0  0  0  0  0  0
   -3.1037  -11.7366   30.2438 C   0  0  0  0  0  0  0  0  0  0  0  0
   -4.2391  -11.6576   30.9827 C   0  0  0  0  0  0  0  0  0  0  0  0
   -3.9883   -8.7432   33.7346 C   0  0  0  0  0  0  0  0  0  0  0  0
   -4.1769   -9.0526   35.0446 C   0  0  0  0  0  0  0  0  0  0  0  0
   -3.0877   -8.9331   35.8773 C   0  0  0  0  0  0  0  0  0  0  0  0
   -1.9226   -8.2691   35.5049 C   0  0  0  0  0  0  0  0  0  0  0  0
   -1.7033   -7.8363   34.2728 N   0  0  0  0  0  0  0  0  0  0  0  0
   -2.6835   -8.1720   33.4188 C   0  0  0  0  0  0  0  0  0  0  0  0
   -6.4637  -10.1601   33.6882 H   0  0  0  0  0  0  0  0  0  0  0  0
   -7.5418  -11.6277   31.9110 H   0  0  0  0  0  0  0  0  0  0  0  0
   -6.3848  -15.0314   34.0936 H   0  0  0  0  0  0  0  0  0  0  0  0
   -7.7028  -17.4599   33.4309 H   0  0  0  0  0  0  0  0  0  0  0  0
   -7.3163  -16.9996   35.0780 H   0  0  0  0  0  0  0  0  0  0  0  0
   -9.9171  -15.8398   33.9946 H   0  0  0  0  0  0  0  0  0  0  0  0
   -9.3244  -16.2564   35.6446 H   0  0  0  0  0  0  0  0  0  0  0  0
  -12.1116  -21.2822   33.4888 H   0  0  0  0  0  0  0  0  0  0  0  0
  -14.5574  -21.5281   33.8128 H   0  0  0  0  0  0  0  0  0  0  0  0
  -15.8504  -19.7185   34.9034 H   0  0  0  0  0  0  0  0  0  0  0  0
  -14.7052  -17.6952   35.8266 H   0  0  0  0  0  0  0  0  0  0  0  0
  -12.0352  -16.4994   35.8567 H   0  0  0  0  0  0  0  0  0  0  0  0
   -6.0998  -12.4961   28.8439 H   0  0  0  0  0  0  0  0  0  0  0  0
   -5.3325  -14.1803   29.9421 H   0  0  0  0  0  0  0  0  0  0  0  0
   -2.5893  -13.6040   29.5399 H   0  0  0  0  0  0  0  0  0  0  0  0
   -2.2047  -11.2141   30.5008 H   0  0  0  0  0  0  0  0  0  0  0  0
   -4.4269  -11.2159   31.8336 H   0  0  0  0  0  0  0  0  0  0  0  0
   -5.0384   -9.5767   35.4140 H   0  0  0  0  0  0  0  0  0  0  0  0
   -3.1566   -9.4365   36.8294 H   0  0  0  0  0  0  0  0  0  0  0  0
   -1.1136   -8.1217   36.2108 H   0  0  0  0  0  0  0  0  0  0  0  0
   -2.3995   -7.9895   32.3806 H   0  0  0  0  0  0  0  0  0  0  0  0
  1  2  2  0
  2  3  1  0
  3  4  1  0
  4  5  1  0
  5  6  2  0
  5  7  1  0
  7  8  1  0
  8  9  1  0
  9 10  1  0
 10 11  2  0
 11 12  1  0
 12 13  2  0
 13 14  1  0
 14 15  2  0
 15 16  1  0
 16 17  2  0
 17 18  1  0
  4 19  1  0
 19 20  2  0
 20 21  1  0
 21 22  2  0
 22 23  1  0
 23 24  2  0
  2 25  1  0
 25 26  2  0
 26 27  1  0
 27 28  2  0
 28 29  1  0
 29 30  2  0
 18 10  1  0
 24 19  1  0
 30 25  1  0
 17 12  1  0
  3 31  1  0
  4 32  1  0
  7 33  1  0
  8 34  1  0
  8 35  1  0
  9 36  1  0
  9 37  1  0
 13 38  1  0
 14 39  1  0
 15 40  1  0
 16 41  1  0
 18 42  1  0
 20 43  1  0
 21 44  1  0
 22 45  1  0
 23 46  1  0
 24 47  1  0
 26 48  1  0
 27 49  1  0
 28 50  1  0
 30 51  1  0
M  END
>  <Energy>  (556) 
796.7673087885704

>  <compound_id>  (556) 
16017

>  <target_id>  (556) 
1

>  <reference_id>  (556) 
56

>  <inspiration_ids>  (556) 
[94, 56]

>  <energy_score>  (556) 
691.9835398396845

>  <distance_score>  (556) 
6.39958293962948

>  <path>  (556) 
/opt/xchem-fragalysis-2/maxwin/BulkDock/SCRATCH/511024/C16017-P56/C16017-P56.minimised.mol

>  <scratch_subdir>  (556) 
/opt/xchem-fragalysis-2/maxwin/BulkDock/SCRATCH/511024/C16017-P56

>  <fragmenstein_runtime>  (556) 
49.7030827999115

>  <fragmenstein_outcome>  (556) 
too moved

>  <fragmenstein_mode>  (556) 
expansion

>  <fragmenstein_error>  (556) 


$$$$
C42127-P94
     RDKit          3D

 31 33  0  0  0  0  0  0  0  0999 V2000
   -2.2426  -15.8487   32.8628 C   0  0  0  0  0  0  0  0  0  0  0  0
   -3.5653  -16.5559   32.1869 C   0  0  0  0  0  0  0  0  0  0  0  0
   -5.5154  -16.1991   31.8105 N   0  0  0  0  0  0  0  0  0  0  0  0
   -6.3097  -17.2063   32.4066 C   0  0  0  0  0  0  0  0  0  0  0  0
   -6.6611  -18.1875   31.9362 O   0  0  0  0  0  0  0  0  0  0  0  0
   -6.9554  -17.0388   33.7958 C   0  0  0  0  0  0  0  0  0  0  0  0
   -8.2513  -17.4210   33.7684 N   0  0  0  0  0  0  0  0  0  0  0  0
   -8.9013  -17.1813   34.9250 C   0  0  0  0  0  0  0  0  0  0  0  0
  -10.2370  -17.3833   35.3287 C   0  0  0  0  0  0  0  0  0  0  0  0
  -10.5536  -17.3625   36.6881 C   0  0  0  0  0  0  0  0  0  0  0  0
   -9.5492  -17.0988   37.6099 C   0  0  0  0  0  0  0  0  0  0  0  0
   -9.9718  -17.0559   39.4595 Br  0  0  0  0  0  0  0  0  0  0  0  0
   -8.2248  -16.8632   37.2090 C   0  0  0  0  0  0  0  0  0  0  0  0
   -7.9482  -16.8440   35.8389 C   0  0  0  0  0  0  0  0  0  0  0  0
   -6.8948  -16.4465   35.0240 N   0  0  0  0  0  0  0  0  0  0  0  0
   -4.8772  -15.9950   30.0192 C   0  0  0  0  0  0  0  0  0  0  0  0
   -3.5708  -15.7233   29.7100 N   0  0  0  0  0  0  0  0  0  0  0  0
   -3.3183  -15.2760   28.4345 C   0  0  0  0  0  0  0  0  0  0  0  0
   -4.4255  -15.1153   27.6669 C   0  0  0  0  0  0  0  0  0  0  0  0
   -5.7519  -15.7189   28.5171 S   0  0  0  0  0  0  0  0  0  0  0  0
   -1.5078  -15.5955   32.0874 H   0  0  0  0  0  0  0  0  0  0  0  0
   -1.6975  -16.6255   33.4190 H   0  0  0  0  0  0  0  0  0  0  0  0
   -2.3700  -14.9932   33.5279 H   0  0  0  0  0  0  0  0  0  0  0  0
   -3.9503  -17.2752   32.8003 H   0  0  0  0  0  0  0  0  0  0  0  0
   -2.8898  -16.9743   31.4020 H   0  0  0  0  0  0  0  0  0  0  0  0
  -10.9951  -17.7003   34.6322 H   0  0  0  0  0  0  0  0  0  0  0  0
  -11.5693  -17.5786   37.0035 H   0  0  0  0  0  0  0  0  0  0  0  0
   -7.4493  -16.7367   37.9496 H   0  0  0  0  0  0  0  0  0  0  0  0
   -6.2688  -15.7230   35.2878 H   0  0  0  0  0  0  0  0  0  0  0  0
   -2.3014  -15.1044   28.1208 H   0  0  0  0  0  0  0  0  0  0  0  0
   -4.5006  -14.7596   26.6501 H   0  0  0  0  0  0  0  0  0  0  0  0
  1  2  1  0
  2  3  1  0
  3  4  1  0
  4  5  2  0
  4  6  1  0
  6  7  2  0
  7  8  1  0
  8  9  2  0
  9 10  1  0
 10 11  2  0
 11 12  1  0
 11 13  1  0
 13 14  2  0
 14 15  1  0
  3 16  1  0
 16 17  2  0
 17 18  1  0
 18 19  2  0
 19 20  1  0
 15  6  1  0
 20 16  1  0
 14  8  1  0
  1 21  1  0
  1 22  1  0
  1 23  1  0
  2 24  1  0
  2 25  1  0
  9 26  1  0
 10 27  1  0
 13 28  1  0
 15 29  1  0
 18 30  1  0
 19 31  1  0
M  END
>  <Energy>  (557) 
327.07144539301225

>  <compound_id>  (557) 
42127

>  <target_id>  (557) 
1

>  <reference_id>  (557) 
94

>  <inspiration_ids>  (557) 
[94, 56]

>  <energy_score>  (557) 
246.23508381391645

>  <distance_score>  (557) 
9.495511321190072

>  <path>  (557) 
/opt/xchem-fragalysis-2/maxwin/BulkDock/SCRATCH/511024/C42127-P94/C42127-P94.minimised.mol

>  <scratch_subdir>  (557) 
/opt/xchem-fragalysis-2/maxwin/BulkDock/SCRATCH/511024/C42127-P94

>  <fragmenstein_runtime>  (557) 
12.042973756790161

>  <fragmenstein_outcome>  (557) 
too moved

>  <fragmenstein_mode>  (557) 
expansion

>  <fragmenstein_error>  (557) 


$$$$
C42127-P56
     RDKit          3D

 31 33  0  0  0  0  0  0  0  0999 V2000
   -0.4199  -19.1351   31.4251 C   0  0  0  0  0  0  0  0  0  0  0  0
   -1.3770  -18.2562   32.2427 C   0  0  0  0  0  0  0  0  0  0  0  0
   -2.1471  -16.9510   31.5985 N   0  0  0  0  0  0  0  0  0  0  0  0
   -3.0154  -16.3268   32.5882 C   0  0  0  0  0  0  0  0  0  0  0  0
   -2.7233  -15.4473   33.3497 O   0  0  0  0  0  0  0  0  0  0  0  0
   -4.8494  -16.7099   32.7230 C   0  0  0  0  0  0  0  0  0  0  0  0
   -5.6085  -17.7809   32.5068 N   0  0  0  0  0  0  0  0  0  0  0  0
   -6.7778  -17.7749   33.2465 C   0  0  0  0  0  0  0  0  0  0  0  0
   -7.5021  -18.7997   33.8097 C   0  0  0  0  0  0  0  0  0  0  0  0
   -8.7858  -18.3500   33.8548 C   0  0  0  0  0  0  0  0  0  0  0  0
   -9.0407  -17.1866   34.5463 C   0  0  0  0  0  0  0  0  0  0  0  0
  -10.7213  -17.0767   35.4192 Br  0  0  0  0  0  0  0  0  0  0  0  0
   -7.9602  -16.3945   34.7973 C   0  0  0  0  0  0  0  0  0  0  0  0
   -6.9701  -16.5747   33.8410 C   0  0  0  0  0  0  0  0  0  0  0  0
   -5.8128  -15.9588   33.5054 N   0  0  0  0  0  0  0  0  0  0  0  0
   -0.8126  -16.6454   31.1909 C   0  0  0  0  0  0  0  0  0  0  0  0
   -0.4165  -16.6887   29.9344 N   0  0  0  0  0  0  0  0  0  0  0  0
    0.6921  -15.8784   29.7488 C   0  0  0  0  0  0  0  0  0  0  0  0
    1.1365  -15.1991   30.8601 C   0  0  0  0  0  0  0  0  0  0  0  0
    0.1299  -15.5642   32.1884 S   0  0  0  0  0  0  0  0  0  0  0  0
   -0.2882  -20.0941   31.9402 H   0  0  0  0  0  0  0  0  0  0  0  0
    0.5854  -18.7119   31.3283 H   0  0  0  0  0  0  0  0  0  0  0  0
   -0.8132  -19.3528   30.4289 H   0  0  0  0  0  0  0  0  0  0  0  0
   -0.9242  -17.9522   33.2027 H   0  0  0  0  0  0  0  0  0  0  0  0
   -2.1438  -18.9482   32.5811 H   0  0  0  0  0  0  0  0  0  0  0  0
   -7.2243  -19.8424   33.7332 H   0  0  0  0  0  0  0  0  0  0  0  0
   -9.5891  -19.0285   33.5727 H   0  0  0  0  0  0  0  0  0  0  0  0
   -7.9263  -15.6479   35.5646 H   0  0  0  0  0  0  0  0  0  0  0  0
   -5.4852  -15.1950   34.0656 H   0  0  0  0  0  0  0  0  0  0  0  0
    1.1335  -15.8124   28.7617 H   0  0  0  0  0  0  0  0  0  0  0  0
    1.9638  -14.5100   30.9421 H   0  0  0  0  0  0  0  0  0  0  0  0
  1  2  1  0
  2  3  1  0
  3  4  1  0
  4  5  2  0
  4  6  1  0
  6  7  2  0
  7  8  1  0
  8  9  2  0
  9 10  1  0
 10 11  2  0
 11 12  1  0
 11 13  1  0
 13 14  2  0
 14 15  1  0
  3 16  1  0
 16 17  2  0
 17 18  1  0
 18 19  2  0
 19 20  1  0
 15  6  1  0
 20 16  1  0
 14  8  1  0
  1 21  1  0
  1 22  1  0
  1 23  1  0
  2 24  1  0
  2 25  1  0
  9 26  1  0
 10 27  1  0
 13 28  1  0
 15 29  1  0
 18 30  1  0
 19 31  1  0
M  END
>  <Energy>  (558) 
210.34788073891497

>  <compound_id>  (558) 
42127

>  <target_id>  (558) 
1

>  <reference_id>  (558) 
56

>  <inspiration_ids>  (558) 
[94, 56]

>  <energy_score>  (558) 
129.5115191598236

>  <distance_score>  (558) 
9.956222781976576

>  <path>  (558) 
/opt/xchem-fragalysis-2/maxwin/BulkDock/SCRATCH/511024/C42127-P56/C42127-P56.minimised.mol

>  <scratch_subdir>  (558) 
/opt/xchem-fragalysis-2/maxwin/BulkDock/SCRATCH/511024/C42127-P56

>  <fragmenstein_runtime>  (558) 
8.89316439628601

>  <fragmenstein_outcome>  (558) 
too moved

>  <fragmenstein_mode>  (558) 
expansion

>  <fragmenstein_error>  (558) 


$$$$
C49465-P35
     RDKit          3D

 51 52  0  0  0  0  0  0  0  0999 V2000
  -10.4314  -28.4683   25.8321 C   0  0  0  0  0  0  0  0  0  0  0  0
  -11.2823  -27.3945   25.4504 N   0  0  0  0  0  0  0  0  0  0  0  0
  -11.9161  -26.7134   26.4636 C   0  0  0  0  0  0  0  0  0  0  0  0
  -12.0280  -25.4789   26.1024 N   0  0  0  0  0  0  0  0  0  0  0  0
  -11.5393  -25.5236   24.8323 C   0  0  0  0  0  0  0  0  0  0  0  0
  -11.6438  -26.8246   24.1713 C   0  0  0  0  0  0  0  0  0  0  0  0
  -11.5235  -27.6912   22.3180 C   0  0  0  0  0  0  0  0  0  0  0  0
  -11.1330  -27.9138   20.2112 C   0  0  0  0  0  0  0  0  0  0  0  0
  -12.0438  -27.8946   18.2869 C   0  0  0  0  0  0  0  0  0  0  0  0
  -12.1186  -29.0292   17.8503 O   0  0  0  0  0  0  0  0  0  0  0  0
  -12.3873  -26.6593   17.6915 N   0  0  0  0  0  0  0  0  0  0  0  0
  -13.0191  -26.3542   16.4247 C   0  0  0  0  0  0  0  0  0  0  0  0
  -11.9915  -26.4817   15.3038 C   0  0  0  0  0  0  0  0  0  0  0  0
  -12.5969  -26.5798   13.9081 C   0  0  0  0  0  0  0  0  0  0  0  0
  -11.5111  -26.8590   12.8523 C   0  0  0  0  0  0  0  0  0  0  0  0
  -10.5441  -25.6867   12.6135 C   0  0  0  0  0  0  0  0  0  0  0  0
  -11.2949  -24.5219   12.1497 N   0  0  0  0  0  0  0  0  0  0  0  0
  -11.5720  -24.5905   10.7007 C   0  0  0  0  0  0  0  0  0  0  0  0
  -10.4288  -24.1242    9.7739 C   0  0  0  0  0  0  0  0  0  0  0  0
   -9.9558  -22.7849   10.1212 N   0  0  0  0  0  0  0  0  0  0  0  0
   -9.5374  -22.7736   11.5342 C   0  0  0  0  0  0  0  0  0  0  0  0
  -10.6393  -23.2461   12.4978 C   0  0  0  0  0  0  0  0  0  0  0  0
  -10.1198  -29.0682   24.9864 H   0  0  0  0  0  0  0  0  0  0  0  0
   -9.5627  -28.0726   26.3585 H   0  0  0  0  0  0  0  0  0  0  0  0
  -11.0434  -29.0342   26.5328 H   0  0  0  0  0  0  0  0  0  0  0  0
  -12.1101  -27.1203   27.4497 H   0  0  0  0  0  0  0  0  0  0  0  0
  -11.2022  -24.5619   24.4492 H   0  0  0  0  0  0  0  0  0  0  0  0
  -10.6515  -28.2980   22.8472 H   0  0  0  0  0  0  0  0  0  0  0  0
  -12.5206  -27.8874   22.7104 H   0  0  0  0  0  0  0  0  0  0  0  0
  -10.5281  -27.0234   20.1587 H   0  0  0  0  0  0  0  0  0  0  0  0
  -10.6499  -28.8670   19.9440 H   0  0  0  0  0  0  0  0  0  0  0  0
  -12.2715  -25.9311   18.3731 H   0  0  0  0  0  0  0  0  0  0  0  0
  -13.8169  -27.0918   16.2855 H   0  0  0  0  0  0  0  0  0  0  0  0
  -13.4727  -25.3625   16.4707 H   0  0  0  0  0  0  0  0  0  0  0  0
  -11.3087  -25.6314   15.3558 H   0  0  0  0  0  0  0  0  0  0  0  0
  -11.3757  -27.3743   15.4773 H   0  0  0  0  0  0  0  0  0  0  0  0
  -13.3122  -27.4113   13.8879 H   0  0  0  0  0  0  0  0  0  0  0  0
  -13.1620  -25.6721   13.6706 H   0  0  0  0  0  0  0  0  0  0  0  0
  -12.0040  -27.1452   11.9163 H   0  0  0  0  0  0  0  0  0  0  0  0
  -10.9259  -27.7355   13.1582 H   0  0  0  0  0  0  0  0  0  0  0  0
   -9.7624  -25.9808   11.9031 H   0  0  0  0  0  0  0  0  0  0  0  0
  -10.0272  -25.4741   13.5559 H   0  0  0  0  0  0  0  0  0  0  0  0
  -12.4548  -23.9779   10.5017 H   0  0  0  0  0  0  0  0  0  0  0  0
  -11.8741  -25.6003   10.4008 H   0  0  0  0  0  0  0  0  0  0  0  0
  -10.7921  -24.1106    8.7405 H   0  0  0  0  0  0  0  0  0  0  0  0
   -9.5968  -24.8378    9.8093 H   0  0  0  0  0  0  0  0  0  0  0  0
   -9.1302  -22.5359    9.5715 H   0  0  0  0  0  0  0  0  0  0  0  0
   -9.2351  -21.7563   11.8030 H   0  0  0  0  0  0  0  0  0  0  0  0
   -8.6575  -23.4154   11.6425 H   0  0  0  0  0  0  0  0  0  0  0  0
  -10.2439  -23.2771   13.5207 H   0  0  0  0  0  0  0  0  0  0  0  0
  -11.4206  -22.4829   12.5252 H   0  0  0  0  0  0  0  0  0  0  0  0
  1  2  1  0
  2  3  1  0
  3  4  2  0
  4  5  1  0
  5  6  2  0
  6  7  1  0
  7  8  1  0
  8  9  1  0
  9 10  2  0
  9 11  1  0
 11 12  1  0
 12 13  1  0
 13 14  1  0
 14 15  1  0
 15 16  1  0
 16 17  1  0
 17 18  1  0
 18 19  1  0
 19 20  1  0
 20 21  1  0
 21 22  1  0
  6  2  1  0
 22 17  1  0
  1 23  1  0
  1 24  1  0
  1 25  1  0
  3 26  1  0
  5 27  1  0
  7 28  1  0
  7 29  1  0
  8 30  1  0
  8 31  1  0
 11 32  1  0
 12 33  1  0
 12 34  1  0
 13 35  1  0
 13 36  1  0
 14 37  1  0
 14 38  1  0
 15 39  1  0
 15 40  1  0
 16 41  1  0
 16 42  1  0
 18 43  1  0
 18 44  1  0
 19 45  1  0
 19 46  1  0
 20 47  1  0
 21 48  1  0
 21 49  1  0
 22 50  1  0
 22 51  1  0
M  END
>  <Energy>  (559) 
472.19530320860719

>  <compound_id>  (559) 
49465

>  <target_id>  (559) 
1

>  <reference_id>  (559) 
35

>  <inspiration_ids>  (559) 
[35, 30]

>  <energy_score>  (559) 
364.38128260304234

>  <distance_score>  (559) 
4.537830981093399

>  <path>  (559) 
/opt/xchem-fragalysis-2/maxwin/BulkDock/SCRATCH/511024/C49465-P35/C49465-P35.minimised.mol

>  <scratch_subdir>  (559) 
/opt/xchem-fragalysis-2/maxwin/BulkDock/SCRATCH/511024/C49465-P35

>  <fragmenstein_runtime>  (559) 
14.306537628173828

>  <fragmenstein_outcome>  (559) 
too moved

>  <fragmenstein_mode>  (559) 
expansion

>  <fragmenstein_error>  (559) 


$$$$
C49465-P30
     RDKit          3D

 51 52  0  0  0  0  0  0  0  0999 V2000
  -10.5029  -24.5630   26.0264 C   0  0  0  0  0  0  0  0  0  0  0  0
  -10.9740  -25.9036   25.8288 N   0  0  0  0  0  0  0  0  0  0  0  0
  -11.2492  -26.5617   26.9918 C   0  0  0  0  0  0  0  0  0  0  0  0
  -11.9673  -27.5892   26.7305 N   0  0  0  0  0  0  0  0  0  0  0  0
  -11.1556  -27.9065   25.7459 C   0  0  0  0  0  0  0  0  0  0  0  0
  -11.0033  -26.9234   24.7676 C   0  0  0  0  0  0  0  0  0  0  0  0
  -10.3991  -27.0029   22.8207 C   0  0  0  0  0  0  0  0  0  0  0  0
  -10.3925  -26.0226   21.0481 C   0  0  0  0  0  0  0  0  0  0  0  0
  -11.3436  -26.4767   19.1081 C   0  0  0  0  0  0  0  0  0  0  0  0
  -10.7199  -26.9655   18.2087 O   0  0  0  0  0  0  0  0  0  0  0  0
  -12.9049  -26.1700   19.1002 N   0  0  0  0  0  0  0  0  0  0  0  0
  -13.9382  -26.4716   18.1199 C   0  0  0  0  0  0  0  0  0  0  0  0
  -14.1472  -25.5321   16.9373 C   0  0  0  0  0  0  0  0  0  0  0  0
  -13.2959  -25.7755   15.6853 C   0  0  0  0  0  0  0  0  0  0  0  0
  -13.6058  -27.0312   14.8741 C   0  0  0  0  0  0  0  0  0  0  0  0
  -13.1285  -26.8897   13.4130 C   0  0  0  0  0  0  0  0  0  0  0  0
  -11.7188  -26.5277   13.2673 N   0  0  0  0  0  0  0  0  0  0  0  0
  -11.4214  -26.0463   11.9006 C   0  0  0  0  0  0  0  0  0  0  0  0
  -10.0153  -26.3988   11.3566 C   0  0  0  0  0  0  0  0  0  0  0  0
   -8.9819  -26.3356   12.3829 N   0  0  0  0  0  0  0  0  0  0  0  0
   -9.3180  -27.1969   13.5287 C   0  0  0  0  0  0  0  0  0  0  0  0
  -10.8045  -27.6087   13.6564 C   0  0  0  0  0  0  0  0  0  0  0  0
  -11.3688  -23.8998   25.9588 H   0  0  0  0  0  0  0  0  0  0  0  0
   -9.7093  -24.3394   25.3307 H   0  0  0  0  0  0  0  0  0  0  0  0
  -10.0988  -24.4261   27.0336 H   0  0  0  0  0  0  0  0  0  0  0  0
  -10.7633  -26.3244   27.9185 H   0  0  0  0  0  0  0  0  0  0  0  0
  -10.3113  -28.4978   26.0602 H   0  0  0  0  0  0  0  0  0  0  0  0
  -11.1615  -27.5916   23.2100 H   0  0  0  0  0  0  0  0  0  0  0  0
  -10.5594  -27.7966   21.9821 H   0  0  0  0  0  0  0  0  0  0  0  0
  -11.0326  -25.0306   21.0534 H   0  0  0  0  0  0  0  0  0  0  0  0
   -9.4704  -25.4085   20.9998 H   0  0  0  0  0  0  0  0  0  0  0  0
  -13.1398  -25.6881   19.9457 H   0  0  0  0  0  0  0  0  0  0  0  0
  -13.7381  -27.4857   17.7587 H   0  0  0  0  0  0  0  0  0  0  0  0
  -14.8681  -26.5125   18.6986 H   0  0  0  0  0  0  0  0  0  0  0  0
  -15.1995  -25.6022   16.6325 H   0  0  0  0  0  0  0  0  0  0  0  0
  -14.0008  -24.5053   17.2787 H   0  0  0  0  0  0  0  0  0  0  0  0
  -13.4828  -24.9251   15.0187 H   0  0  0  0  0  0  0  0  0  0  0  0
  -12.2342  -25.7785   15.9560 H   0  0  0  0  0  0  0  0  0  0  0  0
  -14.6887  -27.2047   14.8598 H   0  0  0  0  0  0  0  0  0  0  0  0
  -13.1554  -27.9085   15.3510 H   0  0  0  0  0  0  0  0  0  0  0  0
  -13.7477  -26.1077   12.9523 H   0  0  0  0  0  0  0  0  0  0  0  0
  -13.3512  -27.8178   12.8708 H   0  0  0  0  0  0  0  0  0  0  0  0
  -11.5343  -24.9551   11.9096 H   0  0  0  0  0  0  0  0  0  0  0  0
  -12.1502  -26.4354   11.1773 H   0  0  0  0  0  0  0  0  0  0  0  0
   -9.7618  -25.7094   10.5446 H   0  0  0  0  0  0  0  0  0  0  0  0
  -10.0325  -27.4064   10.9218 H   0  0  0  0  0  0  0  0  0  0  0  0
   -8.0737  -26.5980   12.0046 H   0  0  0  0  0  0  0  0  0  0  0  0
   -9.0294  -26.6651   14.4408 H   0  0  0  0  0  0  0  0  0  0  0  0
   -8.7092  -28.1078   13.4856 H   0  0  0  0  0  0  0  0  0  0  0  0
  -10.9850  -28.4933   13.0308 H   0  0  0  0  0  0  0  0  0  0  0  0
  -10.9751  -27.9098   14.6960 H   0  0  0  0  0  0  0  0  0  0  0  0
  1  2  1  0
  2  3  1  0
  3  4  2  0
  4  5  1  0
  5  6  2  0
  6  7  1  0
  7  8  1  0
  8  9  1  0
  9 10  2  0
  9 11  1  0
 11 12  1  0
 12 13  1  0
 13 14  1  0
 14 15  1  0
 15 16  1  0
 16 17  1  0
 17 18  1  0
 18 19  1  0
 19 20  1  0
 20 21  1  0
 21 22  1  0
  6  2  1  0
 22 17  1  0
  1 23  1  0
  1 24  1  0
  1 25  1  0
  3 26  1  0
  5 27  1  0
  7 28  1  0
  7 29  1  0
  8 30  1  0
  8 31  1  0
 11 32  1  0
 12 33  1  0
 12 34  1  0
 13 35  1  0
 13 36  1  0
 14 37  1  0
 14 38  1  0
 15 39  1  0
 15 40  1  0
 16 41  1  0
 16 42  1  0
 18 43  1  0
 18 44  1  0
 19 45  1  0
 19 46  1  0
 20 47  1  0
 21 48  1  0
 21 49  1  0
 22 50  1  0
 22 51  1  0
M  END
>  <Energy>  (560) 
557.11338618421075

>  <compound_id>  (560) 
49465

>  <target_id>  (560) 
1

>  <reference_id>  (560) 
30

>  <inspiration_ids>  (560) 
[35, 30]

>  <energy_score>  (560) 
449.2993655786315

>  <distance_score>  (560) 
4.80403525270154

>  <path>  (560) 
/opt/xchem-fragalysis-2/maxwin/BulkDock/SCRATCH/511024/C49465-P30/C49465-P30.minimised.mol

>  <scratch_subdir>  (560) 
/opt/xchem-fragalysis-2/maxwin/BulkDock/SCRATCH/511024/C49465-P30

>  <fragmenstein_runtime>  (560) 
24.09765887260437

>  <fragmenstein_outcome>  (560) 
too moved

>  <fragmenstein_mode>  (560) 
expansion

>  <fragmenstein_error>  (560) 


$$$$
C6360-P124
     RDKit          3D

 21 22  0  0  0  0  0  0  0  0999 V2000
   12.4658   -3.6450   16.3711 C   0  0  0  0  0  0  0  0  0  0  0  0
   13.7632   -3.2195   16.5019 C   0  0  0  0  0  0  0  0  0  0  0  0
   14.1169   -2.1905   15.5647 C   0  0  0  0  0  0  0  0  0  0  0  0
   15.4770   -1.5462   15.4127 C   0  0  0  0  0  0  0  0  0  0  0  0
   15.5593   -0.1865   16.0962 C   0  0  0  0  0  0  0  0  0  0  0  0
   16.0515   -0.4912   17.5049 C   0  0  0  0  0  0  0  0  0  0  0  0
   16.6320   -1.8364   17.4813 N   0  0  0  0  0  0  0  0  0  0  0  0
   16.6342   -2.2866   16.0823 C   0  0  0  0  0  0  0  0  0  0  0  0
   13.0249   -1.8570   14.7871 C   0  0  0  0  0  0  0  0  0  0  0  0
   11.6372   -2.7654   15.1783 S   0  0  0  0  0  0  0  0  0  0  0  0
   11.9722   -4.4330   16.9190 H   0  0  0  0  0  0  0  0  0  0  0  0
   14.4430   -3.6486   17.2285 H   0  0  0  0  0  0  0  0  0  0  0  0
   15.6791   -1.4421   14.3387 H   0  0  0  0  0  0  0  0  0  0  0  0
   16.3089    0.4292   15.5822 H   0  0  0  0  0  0  0  0  0  0  0  0
   14.6178    0.3705   16.0963 H   0  0  0  0  0  0  0  0  0  0  0  0
   15.2195   -0.4761   18.2168 H   0  0  0  0  0  0  0  0  0  0  0  0
   16.7848    0.2539   17.8311 H   0  0  0  0  0  0  0  0  0  0  0  0
   17.5792   -1.8330   17.8568 H   0  0  0  0  0  0  0  0  0  0  0  0
   16.5634   -3.3762   16.0115 H   0  0  0  0  0  0  0  0  0  0  0  0
   17.5810   -1.9834   15.6174 H   0  0  0  0  0  0  0  0  0  0  0  0
   12.9708   -1.1164   13.9994 H   0  0  0  0  0  0  0  0  0  0  0  0
  1  2  2  0
  2  3  1  0
  3  4  1  0
  4  5  1  0
  5  6  1  0
  6  7  1  0
  7  8  1  0
  3  9  2  0
  9 10  1  0
 10  1  1  0
  8  4  1  0
  1 11  1  0
  2 12  1  0
  4 13  1  0
  5 14  1  0
  5 15  1  0
  6 16  1  0
  6 17  1  0
  7 18  1  0
  8 19  1  0
  8 20  1  0
  9 21  1  0
M  END
>  <Energy>  (561) 
23.916556805969531

>  <compound_id>  (561) 
6360

>  <target_id>  (561) 
1

>  <reference_id>  (561) 
124

>  <inspiration_ids>  (561) 
[124, 76]

>  <energy_score>  (561) 
-23.979659499188376

>  <distance_score>  (561) 
1.72850130987279

>  <path>  (561) 
/opt/xchem-fragalysis-2/maxwin/BulkDock/SCRATCH/511024/C6360-P124/C6360-P124.minimised.mol

>  <scratch_subdir>  (561) 
/opt/xchem-fragalysis-2/maxwin/BulkDock/SCRATCH/511024/C6360-P124

>  <fragmenstein_runtime>  (561) 
10.059368133544922

>  <fragmenstein_outcome>  (561) 
too moved

>  <fragmenstein_mode>  (561) 
expansion

>  <fragmenstein_error>  (561) 


$$$$
C6360-P76
     RDKit          3D

 21 22  0  0  0  0  0  0  0  0999 V2000
   12.5150   -3.6495   16.4208 C   0  0  0  0  0  0  0  0  0  0  0  0
   13.8083   -3.2113   16.5522 C   0  0  0  0  0  0  0  0  0  0  0  0
   14.1532   -2.1800   15.6132 C   0  0  0  0  0  0  0  0  0  0  0  0
   15.5070   -1.5249   15.4581 C   0  0  0  0  0  0  0  0  0  0  0  0
   15.5796   -0.1647   16.1401 C   0  0  0  0  0  0  0  0  0  0  0  0
   16.0550   -0.4716   17.5533 C   0  0  0  0  0  0  0  0  0  0  0  0
   16.6805   -1.7968   17.5232 N   0  0  0  0  0  0  0  0  0  0  0  0
   16.6711   -2.2552   16.1263 C   0  0  0  0  0  0  0  0  0  0  0  0
   13.0588   -1.8554   14.8357 C   0  0  0  0  0  0  0  0  0  0  0  0
   11.6814   -2.7787   15.2235 S   0  0  0  0  0  0  0  0  0  0  0  0
   12.0270   -4.4422   16.9694 H   0  0  0  0  0  0  0  0  0  0  0  0
   14.4918   -3.6343   17.2792 H   0  0  0  0  0  0  0  0  0  0  0  0
   15.7065   -1.4200   14.3837 H   0  0  0  0  0  0  0  0  0  0  0  0
   16.3350    0.4514   15.6350 H   0  0  0  0  0  0  0  0  0  0  0  0
   14.6378    0.3915   16.1298 H   0  0  0  0  0  0  0  0  0  0  0  0
   15.2086   -0.4958   18.2480 H   0  0  0  0  0  0  0  0  0  0  0  0
   16.7551    0.2929   17.9059 H   0  0  0  0  0  0  0  0  0  0  0  0
   17.6348   -1.7583   17.8781 H   0  0  0  0  0  0  0  0  0  0  0  0
   16.6064   -3.3457   16.0626 H   0  0  0  0  0  0  0  0  0  0  0  0
   17.6130   -1.9505   15.6524 H   0  0  0  0  0  0  0  0  0  0  0  0
   12.9971   -1.1138   14.0495 H   0  0  0  0  0  0  0  0  0  0  0  0
  1  2  2  0
  2  3  1  0
  3  4  1  0
  4  5  1  0
  5  6  1  0
  6  7  1  0
  7  8  1  0
  3  9  2  0
  9 10  1  0
 10  1  1  0
  8  4  1  0
  1 11  1  0
  2 12  1  0
  4 13  1  0
  5 14  1  0
  5 15  1  0
  6 16  1  0
  6 17  1  0
  7 18  1  0
  8 19  1  0
  8 20  1  0
  9 21  1  0
M  END
>  <Energy>  (562) 
23.91953959709533

>  <compound_id>  (562) 
6360

>  <target_id>  (562) 
1

>  <reference_id>  (562) 
76

>  <inspiration_ids>  (562) 
[124, 76]

>  <energy_score>  (562) 
-23.976676708062968

>  <distance_score>  (562) 
1.738607222560642

>  <path>  (562) 
/opt/xchem-fragalysis-2/maxwin/BulkDock/SCRATCH/511024/C6360-P76/C6360-P76.minimised.mol

>  <scratch_subdir>  (562) 
/opt/xchem-fragalysis-2/maxwin/BulkDock/SCRATCH/511024/C6360-P76

>  <fragmenstein_runtime>  (562) 
17.210228443145752

>  <fragmenstein_outcome>  (562) 
too moved

>  <fragmenstein_mode>  (562) 
expansion

>  <fragmenstein_error>  (562) 


$$$$
C48331-P124
     RDKit          3D

 21 22  0  0  0  0  0  0  0  0999 V2000
   11.7375   -3.0200   15.3717 C   0  0  0  0  0  0  0  0  0  0  0  0
   12.6154   -3.4522   16.3319 C   0  0  0  0  0  0  0  0  0  0  0  0
   13.8051   -2.7010   16.1551 C   0  0  0  0  0  0  0  0  0  0  0  0
   15.0662   -2.7950   16.9346 C   0  0  0  0  0  0  0  0  0  0  0  0
   16.2943   -3.0700   16.0675 C   0  0  0  0  0  0  0  0  0  0  0  0
   17.2537   -1.9407   16.3877 C   0  0  0  0  0  0  0  0  0  0  0  0
   16.7789   -1.4369   17.7335 C   0  0  0  0  0  0  0  0  0  0  0  0
   15.3197   -1.5102   17.6218 N   0  0  0  0  0  0  0  0  0  0  0  0
   13.5514   -1.8745   15.0818 C   0  0  0  0  0  0  0  0  0  0  0  0
   12.3007   -2.0550   14.6183 O   0  0  0  0  0  0  0  0  0  0  0  0
   10.7316   -3.2993   15.0928 H   0  0  0  0  0  0  0  0  0  0  0  0
   12.4255   -4.2268   17.0617 H   0  0  0  0  0  0  0  0  0  0  0  0
   14.9723   -3.5826   17.6932 H   0  0  0  0  0  0  0  0  0  0  0  0
   16.0990   -3.1228   14.9914 H   0  0  0  0  0  0  0  0  0  0  0  0
   16.7435   -4.0260   16.3643 H   0  0  0  0  0  0  0  0  0  0  0  0
   18.2953   -2.2743   16.4093 H   0  0  0  0  0  0  0  0  0  0  0  0
   17.1653   -1.1505   15.6319 H   0  0  0  0  0  0  0  0  0  0  0  0
   17.1166   -0.4164   17.9365 H   0  0  0  0  0  0  0  0  0  0  0  0
   17.1273   -2.0832   18.5473 H   0  0  0  0  0  0  0  0  0  0  0  0
   15.0223   -0.7516   17.0078 H   0  0  0  0  0  0  0  0  0  0  0  0
   14.1358   -1.1311   14.5567 H   0  0  0  0  0  0  0  0  0  0  0  0
  1  2  2  0
  2  3  1  0
  3  4  1  0
  4  5  1  0
  5  6  1  0
  6  7  1  0
  7  8  1  0
  3  9  2  0
  9 10  1  0
 10  1  1  0
  8  4  1  0
  1 11  1  0
  2 12  1  0
  4 13  1  0
  5 14  1  0
  5 15  1  0
  6 16  1  0
  6 17  1  0
  7 18  1  0
  7 19  1  0
  8 20  1  0
  9 21  1  0
M  END
>  <Energy>  (563) 
-0.43115129878856973

>  <compound_id>  (563) 
48331

>  <target_id>  (563) 
1

>  <reference_id>  (563) 
124

>  <inspiration_ids>  (563) 
[124, 76]

>  <energy_score>  (563) 
-17.707755456383445

>  <distance_score>  (563) 
2.615762168832509

>  <path>  (563) 
/opt/xchem-fragalysis-2/maxwin/BulkDock/SCRATCH/511024/C48331-P124/C48331-P124.minimised.mol

>  <scratch_subdir>  (563) 
/opt/xchem-fragalysis-2/maxwin/BulkDock/SCRATCH/511024/C48331-P124

>  <fragmenstein_runtime>  (563) 
5.470958471298218

>  <fragmenstein_outcome>  (563) 
too moved

>  <fragmenstein_mode>  (563) 
expansion

>  <fragmenstein_error>  (563) 


$$$$
C48331-P76
     RDKit          3D

 21 22  0  0  0  0  0  0  0  0999 V2000
   12.0484   -2.3404   14.9706 C   0  0  0  0  0  0  0  0  0  0  0  0
   13.3500   -1.9634   15.1653 C   0  0  0  0  0  0  0  0  0  0  0  0
   13.8456   -2.7745   16.2292 C   0  0  0  0  0  0  0  0  0  0  0  0
   15.2075   -2.7693   16.8191 C   0  0  0  0  0  0  0  0  0  0  0  0
   16.3307   -2.7755   15.7830 C   0  0  0  0  0  0  0  0  0  0  0  0
   17.1306   -1.5213   16.0780 C   0  0  0  0  0  0  0  0  0  0  0  0
   16.7955   -1.2113   17.5207 C   0  0  0  0  0  0  0  0  0  0  0  0
   15.3738   -1.5255   17.5860 N   0  0  0  0  0  0  0  0  0  0  0  0
   12.7937   -3.5835   16.5988 C   0  0  0  0  0  0  0  0  0  0  0  0
   11.7010   -3.3096   15.8515 O   0  0  0  0  0  0  0  0  0  0  0  0
   11.2738   -2.0238   14.2870 H   0  0  0  0  0  0  0  0  0  0  0  0
   13.8822   -1.1985   14.6166 H   0  0  0  0  0  0  0  0  0  0  0  0
   15.3335   -3.6311   17.4878 H   0  0  0  0  0  0  0  0  0  0  0  0
   16.0018   -2.7961   14.7392 H   0  0  0  0  0  0  0  0  0  0  0  0
   16.9667   -3.6556   15.9411 H   0  0  0  0  0  0  0  0  0  0  0  0
   18.2033   -1.6665   15.9193 H   0  0  0  0  0  0  0  0  0  0  0  0
   16.7983   -0.7046   15.4250 H   0  0  0  0  0  0  0  0  0  0  0  0
   16.9905   -0.1655   17.7734 H   0  0  0  0  0  0  0  0  0  0  0  0
   17.3658   -1.8514   18.2041 H   0  0  0  0  0  0  0  0  0  0  0  0
   15.0763   -1.6661   18.5488 H   0  0  0  0  0  0  0  0  0  0  0  0
   12.6672   -4.3581   17.3414 H   0  0  0  0  0  0  0  0  0  0  0  0
  1  2  2  0
  2  3  1  0
  3  4  1  0
  4  5  1  0
  5  6  1  0
  6  7  1  0
  7  8  1  0
  3  9  2  0
  9 10  1  0
 10  1  1  0
  8  4  1  0
  1 11  1  0
  2 12  1  0
  4 13  1  0
  5 14  1  0
  5 15  1  0
  6 16  1  0
  6 17  1  0
  7 18  1  0
  7 19  1  0
  8 20  1  0
  9 21  1  0
M  END
>  <Energy>  (564) 
-1.7792139347810334

>  <compound_id>  (564) 
48331

>  <target_id>  (564) 
1

>  <reference_id>  (564) 
76

>  <inspiration_ids>  (564) 
[124, 76]

>  <energy_score>  (564) 
-19.05581809237583

>  <distance_score>  (564) 
2.1084087593832797

>  <path>  (564) 
/opt/xchem-fragalysis-2/maxwin/BulkDock/SCRATCH/511024/C48331-P76/C48331-P76.minimised.mol

>  <scratch_subdir>  (564) 
/opt/xchem-fragalysis-2/maxwin/BulkDock/SCRATCH/511024/C48331-P76

>  <fragmenstein_runtime>  (564) 
5.052591323852539

>  <fragmenstein_outcome>  (564) 
too moved

>  <fragmenstein_mode>  (564) 
expansion

>  <fragmenstein_error>  (564) 


$$$$
C6361-P124
     RDKit          3D

 21 22  0  0  0  0  0  0  0  0999 V2000
   11.9613   -3.0599   15.4094 C   0  0  0  0  0  0  0  0  0  0  0  0
   12.9131   -2.1194   15.0883 C   0  0  0  0  0  0  0  0  0  0  0  0
   14.0654   -2.2157   15.9255 C   0  0  0  0  0  0  0  0  0  0  0  0
   15.1483   -1.4047   15.8834 N   0  0  0  0  0  0  0  0  0  0  0  0
   15.3479   -0.4012   14.8485 C   0  0  0  0  0  0  0  0  0  0  0  0
   16.7318    0.1466   15.1486 C   0  0  0  0  0  0  0  0  0  0  0  0
   17.4617   -1.0526   15.7258 C   0  0  0  0  0  0  0  0  0  0  0  0
   16.3978   -1.7074   16.5858 C   0  0  0  0  0  0  0  0  0  0  0  0
   13.9385   -3.2261   16.8451 C   0  0  0  0  0  0  0  0  0  0  0  0
   12.4857   -4.0673   16.6749 S   0  0  0  0  0  0  0  0  0  0  0  0
   11.0024   -3.2146   14.9337 H   0  0  0  0  0  0  0  0  0  0  0  0
   12.7720   -1.3946   14.2964 H   0  0  0  0  0  0  0  0  0  0  0  0
   14.5919    0.3902   14.8871 H   0  0  0  0  0  0  0  0  0  0  0  0
   15.3332   -0.8651   13.8548 H   0  0  0  0  0  0  0  0  0  0  0  0
   16.6689    0.9432   15.9000 H   0  0  0  0  0  0  0  0  0  0  0  0
   17.2225    0.5549   14.2606 H   0  0  0  0  0  0  0  0  0  0  0  0
   17.7681   -1.7285   14.9181 H   0  0  0  0  0  0  0  0  0  0  0  0
   18.3520   -0.7749   16.2966 H   0  0  0  0  0  0  0  0  0  0  0  0
   16.6058   -2.7793   16.6724 H   0  0  0  0  0  0  0  0  0  0  0  0
   16.3726   -1.2644   17.5878 H   0  0  0  0  0  0  0  0  0  0  0  0
   14.6295   -3.5211   17.6199 H   0  0  0  0  0  0  0  0  0  0  0  0
  1  2  2  0
  2  3  1  0
  3  4  1  0
  4  5  1  0
  5  6  1  0
  6  7  1  0
  7  8  1  0
  3  9  2  0
  9 10  1  0
 10  1  1  0
  8  4  1  0
  1 11  1  0
  2 12  1  0
  5 13  1  0
  5 14  1  0
  6 15  1  0
  6 16  1  0
  7 17  1  0
  7 18  1  0
  8 19  1  0
  8 20  1  0
  9 21  1  0
M  END
>  <Energy>  (565) 
1.2224431070417836

>  <compound_id>  (565) 
6361

>  <target_id>  (565) 
1

>  <reference_id>  (565) 
124

>  <inspiration_ids>  (565) 
[124, 76]

>  <energy_score>  (565) 
-30.518096097583527

>  <distance_score>  (565) 
2.1308586184751306

>  <path>  (565) 
/opt/xchem-fragalysis-2/maxwin/BulkDock/SCRATCH/511024/C6361-P124/C6361-P124.minimised.mol

>  <scratch_subdir>  (565) 
/opt/xchem-fragalysis-2/maxwin/BulkDock/SCRATCH/511024/C6361-P124

>  <fragmenstein_runtime>  (565) 
16.24584650993347

>  <fragmenstein_outcome>  (565) 
too moved

>  <fragmenstein_mode>  (565) 
expansion

>  <fragmenstein_error>  (565) 


$$$$
C6361-P76
     RDKit          3D

 21 22  0  0  0  0  0  0  0  0999 V2000
   12.0794   -3.2504   15.6904 C   0  0  0  0  0  0  0  0  0  0  0  0
   12.8441   -2.1779   15.2937 C   0  0  0  0  0  0  0  0  0  0  0  0
   14.0577   -2.0728   16.0442 C   0  0  0  0  0  0  0  0  0  0  0  0
   14.9543   -1.0433   15.9275 N   0  0  0  0  0  0  0  0  0  0  0  0
   15.3863   -0.6750   14.5747 C   0  0  0  0  0  0  0  0  0  0  0  0
   16.7158   -1.4110   14.4132 C   0  0  0  0  0  0  0  0  0  0  0  0
   17.1992   -1.7176   15.8323 C   0  0  0  0  0  0  0  0  0  0  0  0
   16.1862   -1.0282   16.7339 C   0  0  0  0  0  0  0  0  0  0  0  0
   14.1736   -3.1021   16.9472 C   0  0  0  0  0  0  0  0  0  0  0  0
   12.8508   -4.1572   16.9089 S   0  0  0  0  0  0  0  0  0  0  0  0
   11.1180   -3.5534   15.2994 H   0  0  0  0  0  0  0  0  0  0  0  0
   12.5206   -1.4770   14.5332 H   0  0  0  0  0  0  0  0  0  0  0  0
   15.5463    0.4094   14.5339 H   0  0  0  0  0  0  0  0  0  0  0  0
   14.6841   -0.9325   13.7752 H   0  0  0  0  0  0  0  0  0  0  0  0
   16.5760   -2.3461   13.8584 H   0  0  0  0  0  0  0  0  0  0  0  0
   17.4371   -0.8042   13.8564 H   0  0  0  0  0  0  0  0  0  0  0  0
   17.1936   -2.8009   15.9997 H   0  0  0  0  0  0  0  0  0  0  0  0
   18.2169   -1.3583   16.0118 H   0  0  0  0  0  0  0  0  0  0  0  0
   16.1055   -1.4835   17.7248 H   0  0  0  0  0  0  0  0  0  0  0  0
   16.4822    0.0164   16.8962 H   0  0  0  0  0  0  0  0  0  0  0  0
   14.9659   -3.3044   17.6504 H   0  0  0  0  0  0  0  0  0  0  0  0
  1  2  2  0
  2  3  1  0
  3  4  1  0
  4  5  1  0
  5  6  1  0
  6  7  1  0
  7  8  1  0
  3  9  2  0
  9 10  1  0
 10  1  1  0
  8  4  1  0
  1 11  1  0
  2 12  1  0
  5 13  1  0
  5 14  1  0
  6 15  1  0
  6 16  1  0
  7 17  1  0
  7 18  1  0
  8 19  1  0
  8 20  1  0
  9 21  1  0
M  END
>  <Energy>  (566) 
10.008593685463351

>  <compound_id>  (566) 
6361

>  <target_id>  (566) 
1

>  <reference_id>  (566) 
76

>  <inspiration_ids>  (566) 
[124, 76]

>  <energy_score>  (566) 
-21.731945519162046

>  <distance_score>  (566) 
1.9530471306994939

>  <path>  (566) 
/opt/xchem-fragalysis-2/maxwin/BulkDock/SCRATCH/511024/C6361-P76/C6361-P76.minimised.mol

>  <scratch_subdir>  (566) 
/opt/xchem-fragalysis-2/maxwin/BulkDock/SCRATCH/511024/C6361-P76

>  <fragmenstein_runtime>  (566) 
14.91278624534607

>  <fragmenstein_outcome>  (566) 
too moved

>  <fragmenstein_mode>  (566) 
expansion

>  <fragmenstein_error>  (566) 


$$$$
C48338-P124
     RDKit          3D

 21 22  0  0  0  0  0  0  0  0999 V2000
   12.2306   -3.8458   16.3353 C   0  0  0  0  0  0  0  0  0  0  0  0
   13.4580   -3.4770   16.8115 C   0  0  0  0  0  0  0  0  0  0  0  0
   13.8782   -2.3911   16.0156 C   0  0  0  0  0  0  0  0  0  0  0  0
   15.0299   -1.6995   16.1512 N   0  0  0  0  0  0  0  0  0  0  0  0
   15.4476   -0.6860   15.1886 C   0  0  0  0  0  0  0  0  0  0  0  0
   16.8503   -0.3225   15.6416 C   0  0  0  0  0  0  0  0  0  0  0  0
   17.3720   -1.6245   16.2235 C   0  0  0  0  0  0  0  0  0  0  0  0
   16.1572   -2.1798   16.9476 C   0  0  0  0  0  0  0  0  0  0  0  0
   12.8637   -2.1558   15.1183 C   0  0  0  0  0  0  0  0  0  0  0  0
   11.8488   -3.0323   15.3255 O   0  0  0  0  0  0  0  0  0  0  0  0
   11.5388   -4.6282   16.5958 H   0  0  0  0  0  0  0  0  0  0  0  0
   13.9777   -3.9400   17.6348 H   0  0  0  0  0  0  0  0  0  0  0  0
   15.4761   -1.1056   14.1756 H   0  0  0  0  0  0  0  0  0  0  0  0
   14.7876    0.1878   15.1971 H   0  0  0  0  0  0  0  0  0  0  0  0
   17.4705    0.0560   14.8242 H   0  0  0  0  0  0  0  0  0  0  0  0
   16.8088    0.4461   16.4231 H   0  0  0  0  0  0  0  0  0  0  0  0
   17.6744   -2.3011   15.4150 H   0  0  0  0  0  0  0  0  0  0  0  0
   18.2279   -1.4808   16.8886 H   0  0  0  0  0  0  0  0  0  0  0  0
   16.0860   -1.7762   17.9638 H   0  0  0  0  0  0  0  0  0  0  0  0
   16.2208   -3.2720   17.0022 H   0  0  0  0  0  0  0  0  0  0  0  0
   12.7031   -1.4394   14.3248 H   0  0  0  0  0  0  0  0  0  0  0  0
  1  2  2  0
  2  3  1  0
  3  4  1  0
  4  5  1  0
  5  6  1  0
  6  7  1  0
  7  8  1  0
  3  9  2  0
  9 10  1  0
 10  1  1  0
  8  4  1  0
  1 11  1  0
  2 12  1  0
  5 13  1  0
  5 14  1  0
  6 15  1  0
  6 16  1  0
  7 17  1  0
  7 18  1  0
  8 19  1  0
  8 20  1  0
  9 21  1  0
M  END
>  <Energy>  (567) 
4.5906625553352294

>  <compound_id>  (567) 
48338

>  <target_id>  (567) 
1

>  <reference_id>  (567) 
124

>  <inspiration_ids>  (567) 
[124, 76]

>  <energy_score>  (567) 
-13.710922359842924

>  <distance_score>  (567) 
2.1786476772174623

>  <path>  (567) 
/opt/xchem-fragalysis-2/maxwin/BulkDock/SCRATCH/511024/C48338-P124/C48338-P124.minimised.mol

>  <scratch_subdir>  (567) 
/opt/xchem-fragalysis-2/maxwin/BulkDock/SCRATCH/511024/C48338-P124

>  <fragmenstein_runtime>  (567) 
21.141183376312256

>  <fragmenstein_outcome>  (567) 
too moved

>  <fragmenstein_mode>  (567) 
expansion

>  <fragmenstein_error>  (567) 


$$$$
C48338-P76
     RDKit          3D

 21 22  0  0  0  0  0  0  0  0999 V2000
   12.2851   -3.9392   16.4460 C   0  0  0  0  0  0  0  0  0  0  0  0
   13.5231   -3.5491   16.8760 C   0  0  0  0  0  0  0  0  0  0  0  0
   13.8794   -2.4347   16.0873 C   0  0  0  0  0  0  0  0  0  0  0  0
   15.0194   -1.7175   16.1840 N   0  0  0  0  0  0  0  0  0  0  0  0
   15.3752   -0.6857   15.2157 C   0  0  0  0  0  0  0  0  0  0  0  0
   16.7872   -0.2953   15.6145 C   0  0  0  0  0  0  0  0  0  0  0  0
   17.3600   -1.5902   16.1634 C   0  0  0  0  0  0  0  0  0  0  0  0
   16.1880   -2.1784   16.9307 C   0  0  0  0  0  0  0  0  0  0  0  0
   12.8221   -2.2092   15.2381 C   0  0  0  0  0  0  0  0  0  0  0  0
   11.8382   -3.1135   15.4725 O   0  0  0  0  0  0  0  0  0  0  0  0
   11.6248   -4.7459   16.7180 H   0  0  0  0  0  0  0  0  0  0  0  0
   14.0920   -4.0212   17.6614 H   0  0  0  0  0  0  0  0  0  0  0  0
   15.3711   -1.0950   14.1981 H   0  0  0  0  0  0  0  0  0  0  0  0
   14.6971    0.1731   15.2601 H   0  0  0  0  0  0  0  0  0  0  0  0
   17.3652    0.1031   14.7760 H   0  0  0  0  0  0  0  0  0  0  0  0
   16.7610    0.4659   16.4038 H   0  0  0  0  0  0  0  0  0  0  0  0
   17.6443   -2.2534   15.3372 H   0  0  0  0  0  0  0  0  0  0  0  0
   18.2389   -1.4330   16.7947 H   0  0  0  0  0  0  0  0  0  0  0  0
   16.1487   -1.7842   17.9523 H   0  0  0  0  0  0  0  0  0  0  0  0
   16.2789   -3.2691   16.9734 H   0  0  0  0  0  0  0  0  0  0  0  0
   12.6107   -1.4831   14.4653 H   0  0  0  0  0  0  0  0  0  0  0  0
  1  2  2  0
  2  3  1  0
  3  4  1  0
  4  5  1  0
  5  6  1  0
  6  7  1  0
  7  8  1  0
  3  9  2  0
  9 10  1  0
 10  1  1  0
  8  4  1  0
  1 11  1  0
  2 12  1  0
  5 13  1  0
  5 14  1  0
  6 15  1  0
  6 16  1  0
  7 17  1  0
  7 18  1  0
  8 19  1  0
  8 20  1  0
  9 21  1  0
M  END
>  <Energy>  (568) 
4.5963115391721603

>  <compound_id>  (568) 
48338

>  <target_id>  (568) 
1

>  <reference_id>  (568) 
76

>  <inspiration_ids>  (568) 
[124, 76]

>  <energy_score>  (568) 
-13.705273376006293

>  <distance_score>  (568) 
2.2023700481149775

>  <path>  (568) 
/opt/xchem-fragalysis-2/maxwin/BulkDock/SCRATCH/511024/C48338-P76/C48338-P76.minimised.mol

>  <scratch_subdir>  (568) 
/opt/xchem-fragalysis-2/maxwin/BulkDock/SCRATCH/511024/C48338-P76

>  <fragmenstein_runtime>  (568) 
14.525506496429443

>  <fragmenstein_outcome>  (568) 
too moved

>  <fragmenstein_mode>  (568) 
expansion

>  <fragmenstein_error>  (568) 


$$$$
C6362-P124
     RDKit          3D

 21 22  0  0  0  0  0  0  0  0999 V2000
   12.3709   -3.6745   16.2956 C   0  0  0  0  0  0  0  0  0  0  0  0
   13.6281   -3.1780   16.5216 C   0  0  0  0  0  0  0  0  0  0  0  0
   13.9586   -2.0681   15.6673 C   0  0  0  0  0  0  0  0  0  0  0  0
   15.2561   -1.3132   15.6860 C   0  0  0  0  0  0  0  0  0  0  0  0
   16.4378   -2.1733   15.2543 C   0  0  0  0  0  0  0  0  0  0  0  0
   17.1407   -2.5135   16.5534 C   0  0  0  0  0  0  0  0  0  0  0  0
   16.8919   -1.2797   17.3942 C   0  0  0  0  0  0  0  0  0  0  0  0
   15.5182   -0.8996   17.0756 N   0  0  0  0  0  0  0  0  0  0  0  0
   12.9098   -1.7891   14.8150 C   0  0  0  0  0  0  0  0  0  0  0  0
   11.5634   -2.7966   15.0870 S   0  0  0  0  0  0  0  0  0  0  0  0
   11.8928   -4.5109   16.7825 H   0  0  0  0  0  0  0  0  0  0  0  0
   14.2933   -3.5830   17.2736 H   0  0  0  0  0  0  0  0  0  0  0  0
   15.1873   -0.4300   15.0387 H   0  0  0  0  0  0  0  0  0  0  0  0
   16.1674   -3.0716   14.6906 H   0  0  0  0  0  0  0  0  0  0  0  0
   17.1164   -1.5773   14.6308 H   0  0  0  0  0  0  0  0  0  0  0  0
   16.6918   -3.3995   17.0166 H   0  0  0  0  0  0  0  0  0  0  0  0
   18.2068   -2.7099   16.4063 H   0  0  0  0  0  0  0  0  0  0  0  0
   17.0162   -1.4760   18.4627 H   0  0  0  0  0  0  0  0  0  0  0  0
   17.5796   -0.4757   17.1063 H   0  0  0  0  0  0  0  0  0  0  0  0
   15.3913    0.1055   17.1692 H   0  0  0  0  0  0  0  0  0  0  0  0
   12.8532   -1.0178   14.0578 H   0  0  0  0  0  0  0  0  0  0  0  0
  1  2  2  0
  2  3  1  0
  3  4  1  0
  4  5  1  0
  5  6  1  0
  6  7  1  0
  7  8  1  0
  3  9  2  0
  9 10  1  0
 10  1  1  0
  8  4  1  0
  1 11  1  0
  2 12  1  0
  4 13  1  0
  5 14  1  0
  5 15  1  0
  6 16  1  0
  6 17  1  0
  7 18  1  0
  7 19  1  0
  8 20  1  0
  9 21  1  0
M  END
>  <Energy>  (569) 
2.9223386296852079

>  <compound_id>  (569) 
6362

>  <target_id>  (569) 
1

>  <reference_id>  (569) 
124

>  <inspiration_ids>  (569) 
[124, 76]

>  <energy_score>  (569) 
-20.297112398885588

>  <distance_score>  (569) 
1.8580774743112332

>  <path>  (569) 
/opt/xchem-fragalysis-2/maxwin/BulkDock/SCRATCH/511024/C6362-P124/C6362-P124.minimised.mol

>  <scratch_subdir>  (569) 
/opt/xchem-fragalysis-2/maxwin/BulkDock/SCRATCH/511024/C6362-P124

>  <fragmenstein_runtime>  (569) 
5.605910062789917

>  <fragmenstein_outcome>  (569) 
too moved

>  <fragmenstein_mode>  (569) 
expansion

>  <fragmenstein_error>  (569) 


$$$$
C6362-P76
     RDKit          3D

 21 22  0  0  0  0  0  0  0  0999 V2000
   12.4140   -3.6769   16.3453 C   0  0  0  0  0  0  0  0  0  0  0  0
   13.6639   -3.1649   16.5782 C   0  0  0  0  0  0  0  0  0  0  0  0
   13.9890   -2.0560   15.7196 C   0  0  0  0  0  0  0  0  0  0  0  0
   15.2782   -1.2878   15.7394 C   0  0  0  0  0  0  0  0  0  0  0  0
   16.4609   -2.1274   15.2721 C   0  0  0  0  0  0  0  0  0  0  0  0
   17.1783   -2.4975   16.5548 C   0  0  0  0  0  0  0  0  0  0  0  0
   16.9340   -1.2854   17.4283 C   0  0  0  0  0  0  0  0  0  0  0  0
   15.5561   -0.9026   17.1335 N   0  0  0  0  0  0  0  0  0  0  0  0
   12.9444   -1.7929   14.8576 C   0  0  0  0  0  0  0  0  0  0  0  0
   11.6083   -2.8133   15.1237 S   0  0  0  0  0  0  0  0  0  0  0  0
   11.9397   -4.5160   16.8342 H   0  0  0  0  0  0  0  0  0  0  0  0
   14.3281   -3.5587   17.3373 H   0  0  0  0  0  0  0  0  0  0  0  0
   15.1918   -0.3911   15.1131 H   0  0  0  0  0  0  0  0  0  0  0  0
   16.1906   -3.0119   14.6871 H   0  0  0  0  0  0  0  0  0  0  0  0
   17.1294   -1.5099   14.6585 H   0  0  0  0  0  0  0  0  0  0  0  0
   16.7367   -3.3962   17.0004 H   0  0  0  0  0  0  0  0  0  0  0  0
   18.2435   -2.6864   16.3921 H   0  0  0  0  0  0  0  0  0  0  0  0
   17.0703   -1.5076   18.4903 H   0  0  0  0  0  0  0  0  0  0  0  0
   17.6159   -0.4723   17.1531 H   0  0  0  0  0  0  0  0  0  0  0  0
   15.4247    0.0991   17.2522 H   0  0  0  0  0  0  0  0  0  0  0  0
   12.8846   -1.0255   14.0965 H   0  0  0  0  0  0  0  0  0  0  0  0
  1  2  2  0
  2  3  1  0
  3  4  1  0
  4  5  1  0
  5  6  1  0
  6  7  1  0
  7  8  1  0
  3  9  2  0
  9 10  1  0
 10  1  1  0
  8  4  1  0
  1 11  1  0
  2 12  1  0
  4 13  1  0
  5 14  1  0
  5 15  1  0
  6 16  1  0
  6 17  1  0
  7 18  1  0
  7 19  1  0
  8 20  1  0
  9 21  1  0
M  END
>  <Energy>  (570) 
2.9219936954483252

>  <compound_id>  (570) 
6362

>  <target_id>  (570) 
1

>  <reference_id>  (570) 
76

>  <inspiration_ids>  (570) 
[124, 76]

>  <energy_score>  (570) 
-20.29745733312268

>  <distance_score>  (570) 
1.8647873270918331

>  <path>  (570) 
/opt/xchem-fragalysis-2/maxwin/BulkDock/SCRATCH/511024/C6362-P76/C6362-P76.minimised.mol

>  <scratch_subdir>  (570) 
/opt/xchem-fragalysis-2/maxwin/BulkDock/SCRATCH/511024/C6362-P76

>  <fragmenstein_runtime>  (570) 
5.789254665374756

>  <fragmenstein_outcome>  (570) 
too moved

>  <fragmenstein_mode>  (570) 
expansion

>  <fragmenstein_error>  (570) 


$$$$
C48363-P124
     RDKit          3D

 53 54  0  0  0  0  0  0  0  0999 V2000
   13.9905    0.7377   22.9130 C   0  0  0  0  0  0  0  0  0  0  0  0
   15.2163    1.1710   23.7168 C   0  0  0  0  0  0  0  0  0  0  0  0
   14.7790    2.0608   24.8848 C   0  0  0  0  0  0  0  0  0  0  0  0
   16.2520    1.9208   22.8543 C   0  0  0  0  0  0  0  0  0  0  0  0
   16.7992    1.1655   21.6170 C   0  0  0  0  0  0  0  0  0  0  0  0
   17.5098   -0.1424   22.0285 C   0  0  0  0  0  0  0  0  0  0  0  0
   17.9655   -0.9321   20.8912 N   0  0  0  0  0  0  0  0  0  0  0  0
   17.7368    2.1170   20.8477 C   0  0  0  0  0  0  0  0  0  0  0  0
   17.9331    1.7044   19.4117 C   0  0  0  0  0  0  0  0  0  0  0  0
   18.9697    1.2164   18.9782 O   0  0  0  0  0  0  0  0  0  0  0  0
   16.8119    1.9556   18.6846 O   0  0  0  0  0  0  0  0  0  0  0  0
   16.8749    1.5417   17.3144 C   0  0  0  0  0  0  0  0  0  0  0  0
   15.6564    2.0922   16.5820 C   0  0  0  0  0  0  0  0  0  0  0  0
   15.2489    0.9713   15.6457 C   0  0  0  0  0  0  0  0  0  0  0  0
   15.4892   -0.2191   16.4662 N   0  0  0  0  0  0  0  0  0  0  0  0
   15.4961   -1.4724   15.7058 C   0  0  0  0  0  0  0  0  0  0  0  0
   14.1054   -2.0200   15.5115 C   0  0  0  0  0  0  0  0  0  0  0  0
   13.2787   -1.5112   14.5053 C   0  0  0  0  0  0  0  0  0  0  0  0
   11.9796   -1.9810   14.3622 C   0  0  0  0  0  0  0  0  0  0  0  0
   11.4986   -2.9852   15.1935 C   0  0  0  0  0  0  0  0  0  0  0  0
   12.3165   -3.5141   16.1873 C   0  0  0  0  0  0  0  0  0  0  0  0
   13.6096   -3.0241   16.3577 C   0  0  0  0  0  0  0  0  0  0  0  0
   16.7731    0.0178   17.1409 C   0  0  0  0  0  0  0  0  0  0  0  0
   13.5245    1.5898   22.4068 H   0  0  0  0  0  0  0  0  0  0  0  0
   14.2550   -0.0064   22.1560 H   0  0  0  0  0  0  0  0  0  0  0  0
   13.2390    0.2814   23.5665 H   0  0  0  0  0  0  0  0  0  0  0  0
   15.6806    0.2778   24.1498 H   0  0  0  0  0  0  0  0  0  0  0  0
   14.0765    1.5301   25.5363 H   0  0  0  0  0  0  0  0  0  0  0  0
   15.6404    2.3546   25.4938 H   0  0  0  0  0  0  0  0  0  0  0  0
   14.2875    2.9727   24.5288 H   0  0  0  0  0  0  0  0  0  0  0  0
   17.0986    2.2074   23.4932 H   0  0  0  0  0  0  0  0  0  0  0  0
   15.7961    2.8606   22.5133 H   0  0  0  0  0  0  0  0  0  0  0  0
   15.9537    0.9103   20.9659 H   0  0  0  0  0  0  0  0  0  0  0  0
   18.3620    0.0765   22.6822 H   0  0  0  0  0  0  0  0  0  0  0  0
   16.8219   -0.7746   22.5975 H   0  0  0  0  0  0  0  0  0  0  0  0
   18.7446   -0.4699   20.4143 H   0  0  0  0  0  0  0  0  0  0  0  0
   18.3441   -1.8185   21.2247 H   0  0  0  0  0  0  0  0  0  0  0  0
   18.7191    2.1768   21.3316 H   0  0  0  0  0  0  0  0  0  0  0  0
   17.3438    3.1414   20.8318 H   0  0  0  0  0  0  0  0  0  0  0  0
   17.7879    1.9304   16.8445 H   0  0  0  0  0  0  0  0  0  0  0  0
   15.8945    3.0109   16.0361 H   0  0  0  0  0  0  0  0  0  0  0  0
   14.8485    2.3298   17.2852 H   0  0  0  0  0  0  0  0  0  0  0  0
   15.8781    0.9829   14.7469 H   0  0  0  0  0  0  0  0  0  0  0  0
   14.2021    1.0779   15.3495 H   0  0  0  0  0  0  0  0  0  0  0  0
   16.0734   -2.2324   16.2507 H   0  0  0  0  0  0  0  0  0  0  0  0
   16.0017   -1.3651   14.7369 H   0  0  0  0  0  0  0  0  0  0  0  0
   13.6319   -0.7301   13.8376 H   0  0  0  0  0  0  0  0  0  0  0  0
   11.3485   -1.5486   13.5962 H   0  0  0  0  0  0  0  0  0  0  0  0
   10.4936   -3.3647   15.0469 H   0  0  0  0  0  0  0  0  0  0  0  0
   11.9541   -4.3184   16.8205 H   0  0  0  0  0  0  0  0  0  0  0  0
   14.2326   -3.4290   17.1511 H   0  0  0  0  0  0  0  0  0  0  0  0
   16.8086   -0.5233   18.0911 H   0  0  0  0  0  0  0  0  0  0  0  0
   17.6113   -0.3164   16.5159 H   0  0  0  0  0  0  0  0  0  0  0  0
  1  2  1  0
  2  3  1  0
  2  4  1  0
  4  5  1  0
  5  6  1  0
  6  7  1  0
  5  8  1  0
  8  9  1  0
  9 10  2  0
  9 11  1  0
 11 12  1  0
 12 13  1  0
 13 14  1  0
 14 15  1  0
 15 16  1  0
 16 17  1  0
 17 18  2  0
 18 19  1  0
 19 20  2  0
 20 21  1  0
 21 22  2  0
 15 23  1  0
 23 12  1  0
 22 17  1  0
  1 24  1  0
  1 25  1  0
  1 26  1  0
  2 27  1  0
  3 28  1  0
  3 29  1  0
  3 30  1  0
  4 31  1  0
  4 32  1  0
  5 33  1  0
  6 34  1  0
  6 35  1  0
  7 36  1  0
  7 37  1  0
  8 38  1  0
  8 39  1  0
 12 40  1  0
 13 41  1  0
 13 42  1  0
 14 43  1  0
 14 44  1  0
 16 45  1  0
 16 46  1  0
 18 47  1  0
 19 48  1  0
 20 49  1  0
 21 50  1  0
 22 51  1  0
 23 52  1  0
 23 53  1  0
M  END
>  <Energy>  (571) 
33.743907632849144

>  <compound_id>  (571) 
48363

>  <target_id>  (571) 
1

>  <reference_id>  (571) 
124

>  <inspiration_ids>  (571) 
[124, 76]

>  <energy_score>  (571) 
-54.04219991879134

>  <distance_score>  (571) 
2.9826861582746305

>  <path>  (571) 
/opt/xchem-fragalysis-2/maxwin/BulkDock/SCRATCH/511024/C48363-P124/C48363-P124.minimised.mol

>  <scratch_subdir>  (571) 
/opt/xchem-fragalysis-2/maxwin/BulkDock/SCRATCH/511024/C48363-P124

>  <fragmenstein_runtime>  (571) 
23.97892999649048

>  <fragmenstein_outcome>  (571) 
too moved

>  <fragmenstein_mode>  (571) 
expansion

>  <fragmenstein_error>  (571) 


$$$$
C48363-P76
     RDKit          3D

 53 54  0  0  0  0  0  0  0  0999 V2000
   16.2568   -4.0983   22.3793 C   0  0  0  0  0  0  0  0  0  0  0  0
   16.1839   -4.0816   20.8514 C   0  0  0  0  0  0  0  0  0  0  0  0
   15.0560   -4.9993   20.3865 C   0  0  0  0  0  0  0  0  0  0  0  0
   17.5611   -4.4469   20.2542 C   0  0  0  0  0  0  0  0  0  0  0  0
   17.6281   -4.3347   18.7065 C   0  0  0  0  0  0  0  0  0  0  0  0
   17.4785   -5.7389   18.0734 C   0  0  0  0  0  0  0  0  0  0  0  0
   17.0818   -5.7032   16.6711 N   0  0  0  0  0  0  0  0  0  0  0  0
   18.9597   -3.6735   18.2924 C   0  0  0  0  0  0  0  0  0  0  0  0
   18.9094   -3.0766   16.9099 C   0  0  0  0  0  0  0  0  0  0  0  0
   19.1058   -3.7120   15.8817 O   0  0  0  0  0  0  0  0  0  0  0  0
   18.5993   -1.7559   16.9744 O   0  0  0  0  0  0  0  0  0  0  0  0
   18.4346   -1.0887   15.7072 C   0  0  0  0  0  0  0  0  0  0  0  0
   18.3167    0.4178   15.9753 C   0  0  0  0  0  0  0  0  0  0  0  0
   16.9048    0.7975   15.5415 C   0  0  0  0  0  0  0  0  0  0  0  0
   16.1808   -0.4669   15.6269 N   0  0  0  0  0  0  0  0  0  0  0  0
   14.8857   -0.4242   14.9462 C   0  0  0  0  0  0  0  0  0  0  0  0
   13.9529   -1.5661   15.2939 C   0  0  0  0  0  0  0  0  0  0  0  0
   12.7543   -1.6890   14.5731 C   0  0  0  0  0  0  0  0  0  0  0  0
   11.8140   -2.6543   14.9233 C   0  0  0  0  0  0  0  0  0  0  0  0
   12.0661   -3.5127   15.9879 C   0  0  0  0  0  0  0  0  0  0  0  0
   13.2482   -3.4143   16.7094 C   0  0  0  0  0  0  0  0  0  0  0  0
   14.1823   -2.4406   16.3707 C   0  0  0  0  0  0  0  0  0  0  0  0
   17.1015   -1.4590   15.0504 C   0  0  0  0  0  0  0  0  0  0  0  0
   16.4915   -5.0998   22.7570 H   0  0  0  0  0  0  0  0  0  0  0  0
   17.0256   -3.4112   22.7368 H   0  0  0  0  0  0  0  0  0  0  0  0
   15.3047   -3.7878   22.8181 H   0  0  0  0  0  0  0  0  0  0  0  0
   15.9365   -3.0583   20.5408 H   0  0  0  0  0  0  0  0  0  0  0  0
   14.1093   -4.7276   20.8706 H   0  0  0  0  0  0  0  0  0  0  0  0
   14.8998   -4.9168   19.3063 H   0  0  0  0  0  0  0  0  0  0  0  0
   15.2700   -6.0471   20.6265 H   0  0  0  0  0  0  0  0  0  0  0  0
   17.8504   -5.4547   20.5777 H   0  0  0  0  0  0  0  0  0  0  0  0
   18.2970   -3.7713   20.7046 H   0  0  0  0  0  0  0  0  0  0  0  0
   16.8042   -3.6937   18.3666 H   0  0  0  0  0  0  0  0  0  0  0  0
   18.4206   -6.2921   18.1660 H   0  0  0  0  0  0  0  0  0  0  0  0
   16.7241   -6.3224   18.6103 H   0  0  0  0  0  0  0  0  0  0  0  0
   17.1747   -6.6383   16.2762 H   0  0  0  0  0  0  0  0  0  0  0  0
   17.7352   -5.1333   16.1196 H   0  0  0  0  0  0  0  0  0  0  0  0
   19.2264   -2.8621   18.9801 H   0  0  0  0  0  0  0  0  0  0  0  0
   19.7947   -4.3804   18.3349 H   0  0  0  0  0  0  0  0  0  0  0  0
   19.2942   -1.3031   15.0603 H   0  0  0  0  0  0  0  0  0  0  0  0
   19.0510    0.9798   15.3873 H   0  0  0  0  0  0  0  0  0  0  0  0
   18.4777    0.6499   17.0350 H   0  0  0  0  0  0  0  0  0  0  0  0
   16.9218    1.1888   14.5162 H   0  0  0  0  0  0  0  0  0  0  0  0
   16.4785    1.5628   16.1982 H   0  0  0  0  0  0  0  0  0  0  0  0
   14.3622    0.4935   15.2521 H   0  0  0  0  0  0  0  0  0  0  0  0
   15.0179   -0.3740   13.8562 H   0  0  0  0  0  0  0  0  0  0  0  0
   12.5295   -1.0099   13.7522 H   0  0  0  0  0  0  0  0  0  0  0  0
   10.8898   -2.7410   14.3611 H   0  0  0  0  0  0  0  0  0  0  0  0
   11.3530   -4.2871   16.2450 H   0  0  0  0  0  0  0  0  0  0  0  0
   13.4375   -4.0912   17.5361 H   0  0  0  0  0  0  0  0  0  0  0  0
   15.0865   -2.3583   16.9688 H   0  0  0  0  0  0  0  0  0  0  0  0
   16.7925   -2.4843   15.2682 H   0  0  0  0  0  0  0  0  0  0  0  0
   17.1799   -1.3355   13.9623 H   0  0  0  0  0  0  0  0  0  0  0  0
  1  2  1  0
  2  3  1  0
  2  4  1  0
  4  5  1  0
  5  6  1  0
  6  7  1  0
  5  8  1  0
  8  9  1  0
  9 10  2  0
  9 11  1  0
 11 12  1  0
 12 13  1  0
 13 14  1  0
 14 15  1  0
 15 16  1  0
 16 17  1  0
 17 18  2  0
 18 19  1  0
 19 20  2  0
 20 21  1  0
 21 22  2  0
 15 23  1  0
 23 12  1  0
 22 17  1  0
  1 24  1  0
  1 25  1  0
  1 26  1  0
  2 27  1  0
  3 28  1  0
  3 29  1  0
  3 30  1  0
  4 31  1  0
  4 32  1  0
  5 33  1  0
  6 34  1  0
  6 35  1  0
  7 36  1  0
  7 37  1  0
  8 38  1  0
  8 39  1  0
 12 40  1  0
 13 41  1  0
 13 42  1  0
 14 43  1  0
 14 44  1  0
 16 45  1  0
 16 46  1  0
 18 47  1  0
 19 48  1  0
 20 49  1  0
 21 50  1  0
 22 51  1  0
 23 52  1  0
 23 53  1  0
M  END
>  <Energy>  (572) 
37.108088607473206

>  <compound_id>  (572) 
48363

>  <target_id>  (572) 
1

>  <reference_id>  (572) 
76

>  <inspiration_ids>  (572) 
[124, 76]

>  <energy_score>  (572) 
-46.28208837446863

>  <distance_score>  (572) 
2.0920092297999613

>  <path>  (572) 
/opt/xchem-fragalysis-2/maxwin/BulkDock/SCRATCH/511024/C48363-P76/C48363-P76.minimised.mol

>  <scratch_subdir>  (572) 
/opt/xchem-fragalysis-2/maxwin/BulkDock/SCRATCH/511024/C48363-P76

>  <fragmenstein_runtime>  (572) 
16.691795110702515

>  <fragmenstein_outcome>  (572) 
too moved

>  <fragmenstein_mode>  (572) 
expansion

>  <fragmenstein_error>  (572) 


$$$$
C48364-P124
     RDKit          3D

 55 56  0  0  0  0  0  0  0  0999 V2000
   17.8598    0.7693   17.5750 C   0  0  0  0  0  0  0  0  0  0  0  0
   18.0180    1.2431   16.1312 C   0  0  0  0  0  0  0  0  0  0  0  0
   19.0909    0.4339   15.3808 C   0  0  0  0  0  0  0  0  0  0  0  0
   18.6679   -0.9176   15.0826 N   0  0  0  0  0  0  0  0  0  0  0  0
   18.4632   -1.5836   13.8313 C   0  0  0  0  0  0  0  0  0  0  0  0
   18.5134   -1.1707   12.7081 O   0  0  0  0  0  0  0  0  0  0  0  0
   18.0139   -3.0470   14.0889 C   0  0  0  0  0  0  0  0  0  0  0  0
   18.3565   -3.4983   15.4712 N   0  0  0  0  0  0  0  0  0  0  0  0
   19.7774   -3.8896   15.5649 C   0  0  0  0  0  0  0  0  0  0  0  0
   19.8641   -5.3345   15.0948 C   0  0  0  0  0  0  0  0  0  0  0  0
   18.4509   -5.8820   15.2177 C   0  0  0  0  0  0  0  0  0  0  0  0
   17.6330   -4.7396   15.7972 C   0  0  0  0  0  0  0  0  0  0  0  0
   16.7458    1.1685   15.4486 N   0  0  0  0  0  0  0  0  0  0  0  0
   15.6204    2.0506   15.4614 C   0  0  0  0  0  0  0  0  0  0  0  0
   15.4705    3.1198   15.9793 O   0  0  0  0  0  0  0  0  0  0  0  0
   14.4431    1.3846   14.7008 C   0  0  0  0  0  0  0  0  0  0  0  0
   14.9153    0.2931   13.8000 N   0  0  0  0  0  0  0  0  0  0  0  0
   15.3773    0.8661   12.5259 C   0  0  0  0  0  0  0  0  0  0  0  0
   13.8259   -0.6685   13.5345 C   0  0  0  0  0  0  0  0  0  0  0  0
   13.5407   -1.6240   14.6780 C   0  0  0  0  0  0  0  0  0  0  0  0
   12.2812   -2.2356   14.7490 C   0  0  0  0  0  0  0  0  0  0  0  0
   12.0095   -3.1826   15.7346 C   0  0  0  0  0  0  0  0  0  0  0  0
   12.9849   -3.5280   16.6673 C   0  0  0  0  0  0  0  0  0  0  0  0
   14.2407   -2.9337   16.6103 C   0  0  0  0  0  0  0  0  0  0  0  0
   14.5199   -1.9978   15.6133 C   0  0  0  0  0  0  0  0  0  0  0  0
   17.4960   -0.2630   17.6230 H   0  0  0  0  0  0  0  0  0  0  0  0
   17.1359    1.3936   18.1105 H   0  0  0  0  0  0  0  0  0  0  0  0
   18.8127    0.8236   18.1113 H   0  0  0  0  0  0  0  0  0  0  0  0
   18.3152    2.2981   16.1550 H   0  0  0  0  0  0  0  0  0  0  0  0
   20.0168    0.3739   15.9615 H   0  0  0  0  0  0  0  0  0  0  0  0
   19.3179    0.9212   14.4260 H   0  0  0  0  0  0  0  0  0  0  0  0
   18.4610   -1.5684   15.8426 H   0  0  0  0  0  0  0  0  0  0  0  0
   16.9254   -3.0418   13.9587 H   0  0  0  0  0  0  0  0  0  0  0  0
   18.4555   -3.6908   13.3201 H   0  0  0  0  0  0  0  0  0  0  0  0
   20.0785   -3.8314   16.6185 H   0  0  0  0  0  0  0  0  0  0  0  0
   20.4544   -3.2319   15.0092 H   0  0  0  0  0  0  0  0  0  0  0  0
   20.5727   -5.9084   15.7007 H   0  0  0  0  0  0  0  0  0  0  0  0
   20.1956   -5.3874   14.0515 H   0  0  0  0  0  0  0  0  0  0  0  0
   18.0779   -6.1689   14.2288 H   0  0  0  0  0  0  0  0  0  0  0  0
   18.4130   -6.7688   15.8585 H   0  0  0  0  0  0  0  0  0  0  0  0
   16.5956   -4.7482   15.4481 H   0  0  0  0  0  0  0  0  0  0  0  0
   17.5943   -4.8371   16.8896 H   0  0  0  0  0  0  0  0  0  0  0  0
   16.5416    0.3780   14.8325 H   0  0  0  0  0  0  0  0  0  0  0  0
   13.8806    2.1494   14.1532 H   0  0  0  0  0  0  0  0  0  0  0  0
   13.8015    0.9804   15.4878 H   0  0  0  0  0  0  0  0  0  0  0  0
   14.5675    1.3642   11.9803 H   0  0  0  0  0  0  0  0  0  0  0  0
   16.1810    1.5928   12.6863 H   0  0  0  0  0  0  0  0  0  0  0  0
   15.7928    0.0805   11.8850 H   0  0  0  0  0  0  0  0  0  0  0  0
   14.1013   -1.3067   12.6837 H   0  0  0  0  0  0  0  0  0  0  0  0
   12.9098   -0.1316   13.2543 H   0  0  0  0  0  0  0  0  0  0  0  0
   11.5106   -1.9936   14.0188 H   0  0  0  0  0  0  0  0  0  0  0  0
   11.0434   -3.6765   15.7492 H   0  0  0  0  0  0  0  0  0  0  0  0
   12.7626   -4.2697   17.4286 H   0  0  0  0  0  0  0  0  0  0  0  0
   15.0097   -3.2063   17.3276 H   0  0  0  0  0  0  0  0  0  0  0  0
   15.5169   -1.5692   15.5667 H   0  0  0  0  0  0  0  0  0  0  0  0
  1  2  1  0
  2  3  1  0
  3  4  1  0
  4  5  1  0
  5  6  2  0
  5  7  1  0
  7  8  1  0
  8  9  1  0
  9 10  1  0
 10 11  1  0
 11 12  1  0
  2 13  1  0
 13 14  1  0
 14 15  2  0
 14 16  1  0
 16 17  1  0
 17 18  1  0
 17 19  1  0
 19 20  1  0
 20 21  2  0
 21 22  1  0
 22 23  2  0
 23 24  1  0
 24 25  2  0
 12  8  1  0
 25 20  1  0
  1 26  1  0
  1 27  1  0
  1 28  1  0
  2 29  1  0
  3 30  1  0
  3 31  1  0
  4 32  1  0
  7 33  1  0
  7 34  1  0
  9 35  1  0
  9 36  1  0
 10 37  1  0
 10 38  1  0
 11 39  1  0
 11 40  1  0
 12 41  1  0
 12 42  1  0
 13 43  1  0
 16 44  1  0
 16 45  1  0
 18 46  1  0
 18 47  1  0
 18 48  1  0
 19 49  1  0
 19 50  1  0
 21 51  1  0
 22 52  1  0
 23 53  1  0
 24 54  1  0
 25 55  1  0
M  END
>  <Energy>  (573) 
83.756499419451231

>  <compound_id>  (573) 
48364

>  <target_id>  (573) 
1

>  <reference_id>  (573) 
124

>  <inspiration_ids>  (573) 
[124, 76]

>  <energy_score>  (573) 
-72.44079623775713

>  <distance_score>  (573) 
2.7485240238474034

>  <path>  (573) 
/opt/xchem-fragalysis-2/maxwin/BulkDock/SCRATCH/511024/C48364-P124/C48364-P124.minimised.mol

>  <scratch_subdir>  (573) 
/opt/xchem-fragalysis-2/maxwin/BulkDock/SCRATCH/511024/C48364-P124

>  <fragmenstein_runtime>  (573) 
17.821977138519287

>  <fragmenstein_outcome>  (573) 
too moved

>  <fragmenstein_mode>  (573) 
expansion

>  <fragmenstein_error>  (573) 


$$$$
C48364-P76
     RDKit          3D

 55 56  0  0  0  0  0  0  0  0999 V2000
   17.7220    2.3328   15.2057 C   0  0  0  0  0  0  0  0  0  0  0  0
   17.3521    2.4893   13.7345 C   0  0  0  0  0  0  0  0  0  0  0  0
   18.5213    2.1425   12.7974 C   0  0  0  0  0  0  0  0  0  0  0  0
   18.9598    0.7720   12.8994 N   0  0  0  0  0  0  0  0  0  0  0  0
   20.2187    0.1638   12.5931 C   0  0  0  0  0  0  0  0  0  0  0  0
   21.2578    0.6481   12.2475 O   0  0  0  0  0  0  0  0  0  0  0  0
   20.0843   -1.3742   12.6837 C   0  0  0  0  0  0  0  0  0  0  0  0
   19.1123   -1.7788   13.7241 N   0  0  0  0  0  0  0  0  0  0  0  0
   18.8091   -3.2106   13.6358 C   0  0  0  0  0  0  0  0  0  0  0  0
   18.1981   -3.5295   14.9921 C   0  0  0  0  0  0  0  0  0  0  0  0
   18.7140   -2.4410   15.9265 C   0  0  0  0  0  0  0  0  0  0  0  0
   19.6605   -1.6088   15.0768 C   0  0  0  0  0  0  0  0  0  0  0  0
   16.1579    1.7250   13.4252 N   0  0  0  0  0  0  0  0  0  0  0  0
   15.3246    1.7155   12.2613 C   0  0  0  0  0  0  0  0  0  0  0  0
   15.3524    2.3924   11.2741 O   0  0  0  0  0  0  0  0  0  0  0  0
   14.1789    0.6956   12.4579 C   0  0  0  0  0  0  0  0  0  0  0  0
   14.5764   -0.4205   13.3632 N   0  0  0  0  0  0  0  0  0  0  0  0
   15.3762   -1.4029   12.6079 C   0  0  0  0  0  0  0  0  0  0  0  0
   13.3528   -1.0693   13.8852 C   0  0  0  0  0  0  0  0  0  0  0  0
   13.5626   -1.9189   15.1238 C   0  0  0  0  0  0  0  0  0  0  0  0
   12.5725   -2.8484   15.4804 C   0  0  0  0  0  0  0  0  0  0  0  0
   12.7394   -3.6676   16.5980 C   0  0  0  0  0  0  0  0  0  0  0  0
   13.8673   -3.5345   17.4037 C   0  0  0  0  0  0  0  0  0  0  0  0
   14.8345   -2.5855   17.0903 C   0  0  0  0  0  0  0  0  0  0  0  0
   14.6817   -1.7813   15.9594 C   0  0  0  0  0  0  0  0  0  0  0  0
   17.9175    1.2864   15.4632 H   0  0  0  0  0  0  0  0  0  0  0  0
   18.6121    2.9208   15.4513 H   0  0  0  0  0  0  0  0  0  0  0  0
   16.9021    2.6757   15.8465 H   0  0  0  0  0  0  0  0  0  0  0  0
   17.0914    3.5384   13.5488 H   0  0  0  0  0  0  0  0  0  0  0  0
   19.3848    2.7868   12.9967 H   0  0  0  0  0  0  0  0  0  0  0  0
   18.2352    2.3004   11.7517 H   0  0  0  0  0  0  0  0  0  0  0  0
   18.2727    0.0399   13.0781 H   0  0  0  0  0  0  0  0  0  0  0  0
   19.7345   -1.7064   11.6983 H   0  0  0  0  0  0  0  0  0  0  0  0
   21.0745   -1.8100   12.8632 H   0  0  0  0  0  0  0  0  0  0  0  0
   19.7176   -3.8099   13.4917 H   0  0  0  0  0  0  0  0  0  0  0  0
   18.1181   -3.4273   12.8165 H   0  0  0  0  0  0  0  0  0  0  0  0
   18.4917   -4.5271   15.3347 H   0  0  0  0  0  0  0  0  0  0  0  0
   17.1044   -3.5003   14.9479 H   0  0  0  0  0  0  0  0  0  0  0  0
   17.8791   -1.8271   16.2816 H   0  0  0  0  0  0  0  0  0  0  0  0
   19.2178   -2.8609   16.8028 H   0  0  0  0  0  0  0  0  0  0  0  0
   19.6720   -0.5635   15.3992 H   0  0  0  0  0  0  0  0  0  0  0  0
   20.6789   -2.0103   15.1580 H   0  0  0  0  0  0  0  0  0  0  0  0
   15.8907    0.9471   14.0308 H   0  0  0  0  0  0  0  0  0  0  0  0
   13.3581    1.2774   12.8964 H   0  0  0  0  0  0  0  0  0  0  0  0
   13.8528    0.3242   11.4805 H   0  0  0  0  0  0  0  0  0  0  0  0
   14.8172   -1.8367   11.7704 H   0  0  0  0  0  0  0  0  0  0  0  0
   16.2829   -0.9399   12.2053 H   0  0  0  0  0  0  0  0  0  0  0  0
   15.7080   -2.2205   13.2545 H   0  0  0  0  0  0  0  0  0  0  0  0
   12.6310   -0.3027   14.1769 H   0  0  0  0  0  0  0  0  0  0  0  0
   12.8769   -1.6735   13.1026 H   0  0  0  0  0  0  0  0  0  0  0  0
   11.6845   -2.9659   14.8604 H   0  0  0  0  0  0  0  0  0  0  0  0
   11.9924   -4.4211   16.8331 H   0  0  0  0  0  0  0  0  0  0  0  0
   13.9861   -4.1620   18.2822 H   0  0  0  0  0  0  0  0  0  0  0  0
   15.7125   -2.4734   17.7209 H   0  0  0  0  0  0  0  0  0  0  0  0
   15.4521   -1.0494   15.7289 H   0  0  0  0  0  0  0  0  0  0  0  0
  1  2  1  0
  2  3  1  0
  3  4  1  0
  4  5  1  0
  5  6  2  0
  5  7  1  0
  7  8  1  0
  8  9  1  0
  9 10  1  0
 10 11  1  0
 11 12  1  0
  2 13  1  0
 13 14  1  0
 14 15  2  0
 14 16  1  0
 16 17  1  0
 17 18  1  0
 17 19  1  0
 19 20  1  0
 20 21  2  0
 21 22  1  0
 22 23  2  0
 23 24  1  0
 24 25  2  0
 12  8  1  0
 25 20  1  0
  1 26  1  0
  1 27  1  0
  1 28  1  0
  2 29  1  0
  3 30  1  0
  3 31  1  0
  4 32  1  0
  7 33  1  0
  7 34  1  0
  9 35  1  0
  9 36  1  0
 10 37  1  0
 10 38  1  0
 11 39  1  0
 11 40  1  0
 12 41  1  0
 12 42  1  0
 13 43  1  0
 16 44  1  0
 16 45  1  0
 18 46  1  0
 18 47  1  0
 18 48  1  0
 19 49  1  0
 19 50  1  0
 21 51  1  0
 22 52  1  0
 23 53  1  0
 24 54  1  0
 25 55  1  0
M  END
>  <Energy>  (574) 
81.365780862506369

>  <compound_id>  (574) 
48364

>  <target_id>  (574) 
1

>  <reference_id>  (574) 
76

>  <inspiration_ids>  (574) 
[124, 76]

>  <energy_score>  (574) 
-74.83151479470337

>  <distance_score>  (574) 
4.169648660876069

>  <path>  (574) 
/opt/xchem-fragalysis-2/maxwin/BulkDock/SCRATCH/511024/C48364-P76/C48364-P76.minimised.mol

>  <scratch_subdir>  (574) 
/opt/xchem-fragalysis-2/maxwin/BulkDock/SCRATCH/511024/C48364-P76

>  <fragmenstein_runtime>  (574) 
20.182607650756836

>  <fragmenstein_outcome>  (574) 
too moved

>  <fragmenstein_mode>  (574) 
expansion

>  <fragmenstein_error>  (574) 


$$$$
C48365-P124
     RDKit          3D

 55 56  0  0  0  0  0  0  0  0999 V2000
   19.0601   -1.8916   14.9426 C   0  0  0  0  0  0  0  0  0  0  0  0
   18.8793   -3.2875   15.5344 C   0  0  0  0  0  0  0  0  0  0  0  0
   19.0558   -4.3541   14.4378 C   0  0  0  0  0  0  0  0  0  0  0  0
   18.9910   -5.7112   14.9354 N   0  0  0  0  0  0  0  0  0  0  0  0
   17.8436   -6.4650   15.6635 C   0  0  0  0  0  0  0  0  0  0  0  0
   16.8051   -6.0816   16.0407 O   0  0  0  0  0  0  0  0  0  0  0  0
   18.3042   -7.9290   15.8456 C   0  0  0  0  0  0  0  0  0  0  0  0
   17.8519   -8.7437   14.7126 N   0  0  0  0  0  0  0  0  0  0  0  0
   17.8619  -10.1734   15.0279 C   0  0  0  0  0  0  0  0  0  0  0  0
   17.6271  -10.8017   13.6665 C   0  0  0  0  0  0  0  0  0  0  0  0
   18.2994   -9.8505   12.6843 C   0  0  0  0  0  0  0  0  0  0  0  0
   18.6526   -8.6111   13.4994 C   0  0  0  0  0  0  0  0  0  0  0  0
   17.5953   -3.3854   16.1994 N   0  0  0  0  0  0  0  0  0  0  0  0
   17.0301   -2.6091   17.4268 C   0  0  0  0  0  0  0  0  0  0  0  0
   17.4861   -1.7211   18.0367 O   0  0  0  0  0  0  0  0  0  0  0  0
   15.6078   -3.2432   17.7372 C   0  0  0  0  0  0  0  0  0  0  0  0
   14.5073   -2.8382   16.7490 C   0  0  0  0  0  0  0  0  0  0  0  0
   13.2707   -3.5139   16.7605 C   0  0  0  0  0  0  0  0  0  0  0  0
   12.2644   -3.2041   15.8402 C   0  0  0  0  0  0  0  0  0  0  0  0
   12.4712   -2.2093   14.8919 C   0  0  0  0  0  0  0  0  0  0  0  0
   13.6798   -1.5188   14.8767 C   0  0  0  0  0  0  0  0  0  0  0  0
   14.6850   -1.8264   15.7991 C   0  0  0  0  0  0  0  0  0  0  0  0
   15.1685   -3.0827   19.1538 N   0  0  0  0  0  0  0  0  0  0  0  0
   15.0970   -1.6976   19.6144 C   0  0  0  0  0  0  0  0  0  0  0  0
   15.9871   -3.8775   20.0673 C   0  0  0  0  0  0  0  0  0  0  0  0
   18.2854   -1.6745   14.1987 H   0  0  0  0  0  0  0  0  0  0  0  0
   20.0374   -1.7951   14.4584 H   0  0  0  0  0  0  0  0  0  0  0  0
   18.9949   -1.1222   15.7192 H   0  0  0  0  0  0  0  0  0  0  0  0
   19.6359   -3.4352   16.3141 H   0  0  0  0  0  0  0  0  0  0  0  0
   20.0250   -4.2406   13.9413 H   0  0  0  0  0  0  0  0  0  0  0  0
   18.2665   -4.2547   13.6861 H   0  0  0  0  0  0  0  0  0  0  0  0
   19.7180   -6.3676   14.6793 H   0  0  0  0  0  0  0  0  0  0  0  0
   19.3866   -7.9896   16.0067 H   0  0  0  0  0  0  0  0  0  0  0  0
   17.8325   -8.2732   16.7755 H   0  0  0  0  0  0  0  0  0  0  0  0
   18.8329  -10.4903   15.4296 H   0  0  0  0  0  0  0  0  0  0  0  0
   17.0789  -10.4534   15.7389 H   0  0  0  0  0  0  0  0  0  0  0  0
   16.5529  -10.8561   13.4507 H   0  0  0  0  0  0  0  0  0  0  0  0
   18.0350  -11.8151   13.6032 H   0  0  0  0  0  0  0  0  0  0  0  0
   19.1998  -10.3000   12.2519 H   0  0  0  0  0  0  0  0  0  0  0  0
   17.6162   -9.6102   11.8626 H   0  0  0  0  0  0  0  0  0  0  0  0
   18.4167   -7.6973   12.9457 H   0  0  0  0  0  0  0  0  0  0  0  0
   19.7275   -8.6168   13.7198 H   0  0  0  0  0  0  0  0  0  0  0  0
   16.9696   -4.1610   15.9675 H   0  0  0  0  0  0  0  0  0  0  0  0
   15.7284   -4.3224   17.5868 H   0  0  0  0  0  0  0  0  0  0  0  0
   13.0842   -4.2906   17.4982 H   0  0  0  0  0  0  0  0  0  0  0  0
   11.3308   -3.7585   15.8538 H   0  0  0  0  0  0  0  0  0  0  0  0
   11.6963   -1.9717   14.1664 H   0  0  0  0  0  0  0  0  0  0  0  0
   13.8406   -0.7327   14.1425 H   0  0  0  0  0  0  0  0  0  0  0  0
   15.6096   -1.2553   15.7496 H   0  0  0  0  0  0  0  0  0  0  0  0
   14.5958   -1.0499   18.8893 H   0  0  0  0  0  0  0  0  0  0  0  0
   16.0726   -1.2615   19.8484 H   0  0  0  0  0  0  0  0  0  0  0  0
   14.5051   -1.6506   20.5347 H   0  0  0  0  0  0  0  0  0  0  0  0
   17.0316   -3.5486   20.0938 H   0  0  0  0  0  0  0  0  0  0  0  0
   15.5868   -3.8221   21.0860 H   0  0  0  0  0  0  0  0  0  0  0  0
   15.9661   -4.9362   19.7855 H   0  0  0  0  0  0  0  0  0  0  0  0
  1  2  1  0
  2  3  1  0
  3  4  1  0
  4  5  1  0
  5  6  2  0
  5  7  1  0
  7  8  1  0
  8  9  1  0
  9 10  1  0
 10 11  1  0
 11 12  1  0
  2 13  1  0
 13 14  1  0
 14 15  2  0
 14 16  1  0
 16 17  1  0
 17 18  2  0
 18 19  1  0
 19 20  2  0
 20 21  1  0
 21 22  2  0
 16 23  1  0
 23 24  1  0
 23 25  1  0
 12  8  1  0
 22 17  1  0
  1 26  1  0
  1 27  1  0
  1 28  1  0
  2 29  1  0
  3 30  1  0
  3 31  1  0
  4 32  1  0
  7 33  1  0
  7 34  1  0
  9 35  1  0
  9 36  1  0
 10 37  1  0
 10 38  1  0
 11 39  1  0
 11 40  1  0
 12 41  1  0
 12 42  1  0
 13 43  1  0
 16 44  1  0
 18 45  1  0
 19 46  1  0
 20 47  1  0
 21 48  1  0
 22 49  1  0
 24 50  1  0
 24 51  1  0
 24 52  1  0
 25 53  1  0
 25 54  1  0
 25 55  1  0
M  END
>  <Energy>  (575) 
141.8239001736726

>  <compound_id>  (575) 
48365

>  <target_id>  (575) 
1

>  <reference_id>  (575) 
124

>  <inspiration_ids>  (575) 
[124, 76]

>  <energy_score>  (575) 
-29.077815160461313

>  <distance_score>  (575) 
3.378574195913051

>  <path>  (575) 
/opt/xchem-fragalysis-2/maxwin/BulkDock/SCRATCH/511024/C48365-P124/C48365-P124.minimised.mol

>  <scratch_subdir>  (575) 
/opt/xchem-fragalysis-2/maxwin/BulkDock/SCRATCH/511024/C48365-P124

>  <fragmenstein_runtime>  (575) 
41.60386681556702

>  <fragmenstein_outcome>  (575) 
too moved

>  <fragmenstein_mode>  (575) 
expansion

>  <fragmenstein_error>  (575) 


$$$$
C48365-P76
     RDKit          3D

 55 56  0  0  0  0  0  0  0  0999 V2000
   18.9921   -1.5972   15.4630 C   0  0  0  0  0  0  0  0  0  0  0  0
   18.6947   -3.0356   15.8770 C   0  0  0  0  0  0  0  0  0  0  0  0
   18.7754   -3.9689   14.6620 C   0  0  0  0  0  0  0  0  0  0  0  0
   18.6040   -5.3598   15.0078 N   0  0  0  0  0  0  0  0  0  0  0  0
   18.4414   -6.6135   14.1007 C   0  0  0  0  0  0  0  0  0  0  0  0
   18.4989   -6.7195   12.9367 O   0  0  0  0  0  0  0  0  0  0  0  0
   18.1652   -7.8123   15.0373 C   0  0  0  0  0  0  0  0  0  0  0  0
   19.3650   -8.5468   15.4466 N   0  0  0  0  0  0  0  0  0  0  0  0
   20.3989   -7.7806   16.1283 C   0  0  0  0  0  0  0  0  0  0  0  0
   21.5302   -8.7929   16.2216 C   0  0  0  0  0  0  0  0  0  0  0  0
   21.3499   -9.6968   15.0048 C   0  0  0  0  0  0  0  0  0  0  0  0
   20.0428   -9.2501   14.3601 C   0  0  0  0  0  0  0  0  0  0  0  0
   17.3972   -3.1070   16.5255 N   0  0  0  0  0  0  0  0  0  0  0  0
   16.9163   -2.5324   17.8930 C   0  0  0  0  0  0  0  0  0  0  0  0
   17.4713   -1.8501   18.6661 O   0  0  0  0  0  0  0  0  0  0  0  0
   15.4354   -3.0052   18.1538 C   0  0  0  0  0  0  0  0  0  0  0  0
   14.4547   -2.8588   16.9797 C   0  0  0  0  0  0  0  0  0  0  0  0
   13.2582   -3.5951   16.9247 C   0  0  0  0  0  0  0  0  0  0  0  0
   12.2974   -3.3448   15.9380 C   0  0  0  0  0  0  0  0  0  0  0  0
   12.5110   -2.3611   14.9791 C   0  0  0  0  0  0  0  0  0  0  0  0
   13.6857   -1.6198   15.0151 C   0  0  0  0  0  0  0  0  0  0  0  0
   14.6342   -1.8526   16.0156 C   0  0  0  0  0  0  0  0  0  0  0  0
   15.3708   -4.3359   18.8387 N   0  0  0  0  0  0  0  0  0  0  0  0
   15.3474   -4.1519   20.2954 C   0  0  0  0  0  0  0  0  0  0  0  0
   16.4414   -5.2649   18.4850 C   0  0  0  0  0  0  0  0  0  0  0  0
   18.2469   -1.2290   14.7488 H   0  0  0  0  0  0  0  0  0  0  0  0
   19.9803   -1.5199   14.9980 H   0  0  0  0  0  0  0  0  0  0  0  0
   18.9755   -0.9274   16.3295 H   0  0  0  0  0  0  0  0  0  0  0  0
   19.4302   -3.3386   16.6315 H   0  0  0  0  0  0  0  0  0  0  0  0
   19.7475   -3.8848   14.1645 H   0  0  0  0  0  0  0  0  0  0  0  0
   18.0077   -3.7227   13.9205 H   0  0  0  0  0  0  0  0  0  0  0  0
   18.4114   -5.6110   15.9705 H   0  0  0  0  0  0  0  0  0  0  0  0
   17.4741   -8.4861   14.5151 H   0  0  0  0  0  0  0  0  0  0  0  0
   17.6159   -7.4793   15.9254 H   0  0  0  0  0  0  0  0  0  0  0  0
   20.7376   -6.9173   15.5443 H   0  0  0  0  0  0  0  0  0  0  0  0
   20.0824   -7.4382   17.1183 H   0  0  0  0  0  0  0  0  0  0  0  0
   21.4409   -9.3869   17.1392 H   0  0  0  0  0  0  0  0  0  0  0  0
   22.5118   -8.3089   16.2294 H   0  0  0  0  0  0  0  0  0  0  0  0
   22.1875   -9.5989   14.3063 H   0  0  0  0  0  0  0  0  0  0  0  0
   21.2966  -10.7445   15.3220 H   0  0  0  0  0  0  0  0  0  0  0  0
   19.4637  -10.1051   13.9969 H   0  0  0  0  0  0  0  0  0  0  0  0
   20.2649   -8.5931   13.5115 H   0  0  0  0  0  0  0  0  0  0  0  0
   16.6279   -3.5957   16.0723 H   0  0  0  0  0  0  0  0  0  0  0  0
   15.0423   -2.2477   18.8519 H   0  0  0  0  0  0  0  0  0  0  0  0
   13.0422   -4.3492   17.6788 H   0  0  0  0  0  0  0  0  0  0  0  0
   11.3848   -3.9326   15.9150 H   0  0  0  0  0  0  0  0  0  0  0  0
   11.7678   -2.1722   14.2070 H   0  0  0  0  0  0  0  0  0  0  0  0
   13.8505   -0.8355   14.2792 H   0  0  0  0  0  0  0  0  0  0  0  0
   15.5073   -1.2017   16.0383 H   0  0  0  0  0  0  0  0  0  0  0  0
   14.4813   -3.5509   20.5952 H   0  0  0  0  0  0  0  0  0  0  0  0
   16.2568   -3.6660   20.6662 H   0  0  0  0  0  0  0  0  0  0  0  0
   15.2400   -5.1172   20.8034 H   0  0  0  0  0  0  0  0  0  0  0  0
   17.4324   -4.9201   18.8005 H   0  0  0  0  0  0  0  0  0  0  0  0
   16.2734   -6.2366   18.9638 H   0  0  0  0  0  0  0  0  0  0  0  0
   16.4565   -5.4542   17.4083 H   0  0  0  0  0  0  0  0  0  0  0  0
  1  2  1  0
  2  3  1  0
  3  4  1  0
  4  5  1  0
  5  6  2  0
  5  7  1  0
  7  8  1  0
  8  9  1  0
  9 10  1  0
 10 11  1  0
 11 12  1  0
  2 13  1  0
 13 14  1  0
 14 15  2  0
 14 16  1  0
 16 17  1  0
 17 18  2  0
 18 19  1  0
 19 20  2  0
 20 21  1  0
 21 22  2  0
 16 23  1  0
 23 24  1  0
 23 25  1  0
 12  8  1  0
 22 17  1  0
  1 26  1  0
  1 27  1  0
  1 28  1  0
  2 29  1  0
  3 30  1  0
  3 31  1  0
  4 32  1  0
  7 33  1  0
  7 34  1  0
  9 35  1  0
  9 36  1  0
 10 37  1  0
 10 38  1  0
 11 39  1  0
 11 40  1  0
 12 41  1  0
 12 42  1  0
 13 43  1  0
 16 44  1  0
 18 45  1  0
 19 46  1  0
 20 47  1  0
 21 48  1  0
 22 49  1  0
 24 50  1  0
 24 51  1  0
 24 52  1  0
 25 53  1  0
 25 54  1  0
 25 55  1  0
M  END
>  <Energy>  (576) 
148.00064217108482

>  <compound_id>  (576) 
48365

>  <target_id>  (576) 
1

>  <reference_id>  (576) 
76

>  <inspiration_ids>  (576) 
[124, 76]

>  <energy_score>  (576) 
-22.901073163048693

>  <distance_score>  (576) 
3.282124999834419

>  <path>  (576) 
/opt/xchem-fragalysis-2/maxwin/BulkDock/SCRATCH/511024/C48365-P76/C48365-P76.minimised.mol

>  <scratch_subdir>  (576) 
/opt/xchem-fragalysis-2/maxwin/BulkDock/SCRATCH/511024/C48365-P76

>  <fragmenstein_runtime>  (576) 
49.80250024795532

>  <fragmenstein_outcome>  (576) 
too moved

>  <fragmenstein_mode>  (576) 
expansion

>  <fragmenstein_error>  (576) 


$$$$
C54698-P124
     RDKit          3D

 39 39  0  0  0  0  0  0  0  0999 V2000
   15.6396    0.0079   18.7471 C   0  0  0  0  0  0  0  0  0  0  0  0
   15.6874    1.1708   18.0768 C   0  0  0  0  0  0  0  0  0  0  0  0
   15.1465    2.4340   18.6766 C   0  0  0  0  0  0  0  0  0  0  0  0
   16.3456    1.3302   16.7144 C   0  0  0  0  0  0  0  0  0  0  0  0
   15.3773    1.5674   15.5187 C   0  0  0  0  0  0  0  0  0  0  0  0
   16.1619    2.1204   14.3046 C   0  0  0  0  0  0  0  0  0  0  0  0
   15.2975    2.4867   13.2318 O   0  0  0  0  0  0  0  0  0  0  0  0
   14.5187    0.3957   15.2659 N   0  0  0  0  0  0  0  0  0  0  0  0
   15.1211   -0.7948   14.6681 C   0  0  0  0  0  0  0  0  0  0  0  0
   15.1394   -0.7255   13.1324 C   0  0  0  0  0  0  0  0  0  0  0  0
   14.3189   -2.0629   15.0813 C   0  0  0  0  0  0  0  0  0  0  0  0
   12.8657   -2.0928   14.5880 C   0  0  0  0  0  0  0  0  0  0  0  0
   12.1120   -2.9303   15.6112 C   0  0  0  0  0  0  0  0  0  0  0  0
   13.1720   -3.3971   16.5904 C   0  0  0  0  0  0  0  0  0  0  0  0
   14.1879   -2.3396   16.5256 N   0  0  0  0  0  0  0  0  0  0  0  0
   15.1851   -0.0708   19.7303 H   0  0  0  0  0  0  0  0  0  0  0  0
   16.0556   -0.9013   18.3261 H   0  0  0  0  0  0  0  0  0  0  0  0
   14.3673    2.8685   18.0441 H   0  0  0  0  0  0  0  0  0  0  0  0
   15.9466    3.1723   18.7941 H   0  0  0  0  0  0  0  0  0  0  0  0
   14.7074    2.2640   19.6657 H   0  0  0  0  0  0  0  0  0  0  0  0
   16.9867    0.4637   16.5097 H   0  0  0  0  0  0  0  0  0  0  0  0
   17.0392    2.1792   16.7869 H   0  0  0  0  0  0  0  0  0  0  0  0
   14.6780    2.3648   15.8007 H   0  0  0  0  0  0  0  0  0  0  0  0
   16.9094    1.4053   13.9489 H   0  0  0  0  0  0  0  0  0  0  0  0
   16.6998    3.0280   14.6015 H   0  0  0  0  0  0  0  0  0  0  0  0
   15.8581    2.7362   12.4800 H   0  0  0  0  0  0  0  0  0  0  0  0
   14.1294    0.1031   16.1625 H   0  0  0  0  0  0  0  0  0  0  0  0
   16.1460   -0.9367   15.0292 H   0  0  0  0  0  0  0  0  0  0  0  0
   14.1708   -0.4097   12.7286 H   0  0  0  0  0  0  0  0  0  0  0  0
   15.3726   -1.7062   12.7015 H   0  0  0  0  0  0  0  0  0  0  0  0
   15.8982   -0.0398   12.7536 H   0  0  0  0  0  0  0  0  0  0  0  0
   14.8845   -2.9004   14.6668 H   0  0  0  0  0  0  0  0  0  0  0  0
   12.4165   -1.0958   14.5357 H   0  0  0  0  0  0  0  0  0  0  0  0
   12.7909   -2.5284   13.5872 H   0  0  0  0  0  0  0  0  0  0  0  0
   11.5670   -3.7559   15.1519 H   0  0  0  0  0  0  0  0  0  0  0  0
   11.3677   -2.3044   16.1082 H   0  0  0  0  0  0  0  0  0  0  0  0
   12.7842   -3.5273   17.6013 H   0  0  0  0  0  0  0  0  0  0  0  0
   13.6025   -4.3514   16.2737 H   0  0  0  0  0  0  0  0  0  0  0  0
   15.0746   -2.6760   16.8960 H   0  0  0  0  0  0  0  0  0  0  0  0
  1  2  2  0
  2  3  1  0
  2  4  1  0
  4  5  1  0
  5  6  1  0
  6  7  1  0
  5  8  1  0
  8  9  1  0
  9 10  1  0
  9 11  1  0
 11 12  1  0
 12 13  1  0
 13 14  1  0
 14 15  1  0
 15 11  1  0
  1 16  1  0
  1 17  1  0
  3 18  1  0
  3 19  1  0
  3 20  1  0
  4 21  1  0
  4 22  1  0
  5 23  1  0
  6 24  1  0
  6 25  1  0
  7 26  1  0
  8 27  1  0
  9 28  1  0
 10 29  1  0
 10 30  1  0
 10 31  1  0
 11 32  1  0
 12 33  1  0
 12 34  1  0
 13 35  1  0
 13 36  1  0
 14 37  1  0
 14 38  1  0
 15 39  1  0
M  END
>  <Energy>  (577) 
76.372507428196897

>  <compound_id>  (577) 
54698

>  <target_id>  (577) 
1

>  <reference_id>  (577) 
124

>  <inspiration_ids>  (577) 
[124, 76]

>  <energy_score>  (577) 
-42.2924606170607

>  <distance_score>  (577) 
1.0693484004328497

>  <path>  (577) 
/opt/xchem-fragalysis-2/maxwin/BulkDock/SCRATCH/511024/C54698-P124/C54698-P124.minimised.mol

>  <scratch_subdir>  (577) 
/opt/xchem-fragalysis-2/maxwin/BulkDock/SCRATCH/511024/C54698-P124

>  <fragmenstein_runtime>  (577) 
1.2120671272277832

>  <fragmenstein_outcome>  (577) 
too moved

>  <fragmenstein_mode>  (577) 
expansion

>  <fragmenstein_error>  (577) 


$$$$
C54698-P76
     RDKit          3D

 39 39  0  0  0  0  0  0  0  0999 V2000
   15.6366    0.0302   18.7508 C   0  0  0  0  0  0  0  0  0  0  0  0
   15.6810    1.1935   18.0809 C   0  0  0  0  0  0  0  0  0  0  0  0
   15.1267    2.4522   18.6774 C   0  0  0  0  0  0  0  0  0  0  0  0
   16.3496    1.3590   16.7242 C   0  0  0  0  0  0  0  0  0  0  0  0
   15.3903    1.5951   15.5211 C   0  0  0  0  0  0  0  0  0  0  0  0
   16.1819    2.1495   14.3123 C   0  0  0  0  0  0  0  0  0  0  0  0
   15.3239    2.5118   13.2328 O   0  0  0  0  0  0  0  0  0  0  0  0
   14.5371    0.4229   15.2581 N   0  0  0  0  0  0  0  0  0  0  0  0
   15.1508   -0.7682   14.6733 C   0  0  0  0  0  0  0  0  0  0  0  0
   15.1826   -0.7070   13.1375 C   0  0  0  0  0  0  0  0  0  0  0  0
   14.3518   -2.0369   15.0879 C   0  0  0  0  0  0  0  0  0  0  0  0
   12.9039   -2.0771   14.5798 C   0  0  0  0  0  0  0  0  0  0  0  0
   12.1415   -2.8993   15.6087 C   0  0  0  0  0  0  0  0  0  0  0  0
   13.1902   -3.3532   16.6068 C   0  0  0  0  0  0  0  0  0  0  0  0
   14.2086   -2.3000   16.5337 N   0  0  0  0  0  0  0  0  0  0  0  0
   15.1741   -0.0518   19.7300 H   0  0  0  0  0  0  0  0  0  0  0  0
   16.0639   -0.8753   18.3336 H   0  0  0  0  0  0  0  0  0  0  0  0
   14.3519    2.8838   18.0376 H   0  0  0  0  0  0  0  0  0  0  0  0
   15.9213    3.1947   18.8047 H   0  0  0  0  0  0  0  0  0  0  0  0
   14.6781    2.2779   19.6615 H   0  0  0  0  0  0  0  0  0  0  0  0
   16.9969    0.4964   16.5231 H   0  0  0  0  0  0  0  0  0  0  0  0
   17.0384    2.2114   16.8044 H   0  0  0  0  0  0  0  0  0  0  0  0
   14.6872    2.3909   15.7978 H   0  0  0  0  0  0  0  0  0  0  0  0
   16.9342    1.4364   13.9624 H   0  0  0  0  0  0  0  0  0  0  0  0
   16.7148    3.0590   14.6122 H   0  0  0  0  0  0  0  0  0  0  0  0
   15.8892    2.7598   12.4841 H   0  0  0  0  0  0  0  0  0  0  0  0
   14.1306    0.1331   16.1477 H   0  0  0  0  0  0  0  0  0  0  0  0
   16.1733   -0.9030   15.0437 H   0  0  0  0  0  0  0  0  0  0  0  0
   14.2155   -0.4011   12.7230 H   0  0  0  0  0  0  0  0  0  0  0  0
   15.4276   -1.6883   12.7145 H   0  0  0  0  0  0  0  0  0  0  0  0
   15.9393   -0.0171   12.7621 H   0  0  0  0  0  0  0  0  0  0  0  0
   14.9279   -2.8734   14.6861 H   0  0  0  0  0  0  0  0  0  0  0  0
   12.4544   -1.0819   14.5075 H   0  0  0  0  0  0  0  0  0  0  0  0
   12.8377   -2.5250   13.5832 H   0  0  0  0  0  0  0  0  0  0  0  0
   11.5968   -3.7293   15.1576 H   0  0  0  0  0  0  0  0  0  0  0  0
   11.3947   -2.2636   16.0884 H   0  0  0  0  0  0  0  0  0  0  0  0
   12.7914   -3.4602   17.6161 H   0  0  0  0  0  0  0  0  0  0  0  0
   13.6212   -4.3170   16.3183 H   0  0  0  0  0  0  0  0  0  0  0  0
   15.0922   -2.6340   16.9139 H   0  0  0  0  0  0  0  0  0  0  0  0
  1  2  2  0
  2  3  1  0
  2  4  1  0
  4  5  1  0
  5  6  1  0
  6  7  1  0
  5  8  1  0
  8  9  1  0
  9 10  1  0
  9 11  1  0
 11 12  1  0
 12 13  1  0
 13 14  1  0
 14 15  1  0
 15 11  1  0
  1 16  1  0
  1 17  1  0
  3 18  1  0
  3 19  1  0
  3 20  1  0
  4 21  1  0
  4 22  1  0
  5 23  1  0
  6 24  1  0
  6 25  1  0
  7 26  1  0
  8 27  1  0
  9 28  1  0
 10 29  1  0
 10 30  1  0
 10 31  1  0
 11 32  1  0
 12 33  1  0
 12 34  1  0
 13 35  1  0
 13 36  1  0
 14 37  1  0
 14 38  1  0
 15 39  1  0
M  END
>  <Energy>  (578) 
76.354530724253493

>  <compound_id>  (578) 
54698

>  <target_id>  (578) 
1

>  <reference_id>  (578) 
76

>  <inspiration_ids>  (578) 
[124, 76]

>  <energy_score>  (578) 
-42.310437321004315

>  <distance_score>  (578) 
1.0759281539490957

>  <path>  (578) 
/opt/xchem-fragalysis-2/maxwin/BulkDock/SCRATCH/511024/C54698-P76/C54698-P76.minimised.mol

>  <scratch_subdir>  (578) 
/opt/xchem-fragalysis-2/maxwin/BulkDock/SCRATCH/511024/C54698-P76

>  <fragmenstein_runtime>  (578) 
1.1229240894317627

>  <fragmenstein_outcome>  (578) 
too moved

>  <fragmenstein_mode>  (578) 
expansion

>  <fragmenstein_error>  (578) 


$$$$
C54699-P124
     RDKit          3D

 38 38  0  0  0  0  0  0  0  0999 V2000
   17.3527   -3.7124   14.8389 C   0  0  0  0  0  0  0  0  0  0  0  0
   17.6553   -2.7458   15.9754 C   0  0  0  0  0  0  0  0  0  0  0  0
   16.5090   -1.8976   16.3589 N   0  0  0  0  0  0  0  0  0  0  0  0
   16.1725   -0.9385   15.2891 C   0  0  0  0  0  0  0  0  0  0  0  0
   14.6699   -0.7133   15.1140 C   0  0  0  0  0  0  0  0  0  0  0  0
   13.9218   -1.9930   14.7273 C   0  0  0  0  0  0  0  0  0  0  0  0
   12.4583   -1.7573   14.3934 C   0  0  0  0  0  0  0  0  0  0  0  0
   11.6857   -2.8446   15.1104 C   0  0  0  0  0  0  0  0  0  0  0  0
   12.5993   -3.2948   16.2291 C   0  0  0  0  0  0  0  0  0  0  0  0
   13.9386   -3.0447   15.7464 N   0  0  0  0  0  0  0  0  0  0  0  0
   16.8052   -1.2293   17.6475 C   0  0  0  0  0  0  0  0  0  0  0  0
   15.7046   -0.2904   18.1945 C   0  0  0  0  0  0  0  0  0  0  0  0
   15.9355    0.0450   19.6554 C   0  0  0  0  0  0  0  0  0  0  0  0
   15.6612    0.9618   17.5057 O   0  0  0  0  0  0  0  0  0  0  0  0
   16.5034   -4.3526   15.0947 H   0  0  0  0  0  0  0  0  0  0  0  0
   17.1426   -3.2103   13.8921 H   0  0  0  0  0  0  0  0  0  0  0  0
   18.2158   -4.3661   14.6722 H   0  0  0  0  0  0  0  0  0  0  0  0
   18.5232   -2.1278   15.7117 H   0  0  0  0  0  0  0  0  0  0  0  0
   17.9527   -3.3588   16.8360 H   0  0  0  0  0  0  0  0  0  0  0  0
   16.6881    0.0179   15.4399 H   0  0  0  0  0  0  0  0  0  0  0  0
   16.5447   -1.2756   14.3156 H   0  0  0  0  0  0  0  0  0  0  0  0
   14.2183   -0.2679   15.9965 H   0  0  0  0  0  0  0  0  0  0  0  0
   14.5342    0.0242   14.3117 H   0  0  0  0  0  0  0  0  0  0  0  0
   14.4168   -2.3729   13.8265 H   0  0  0  0  0  0  0  0  0  0  0  0
   12.2800   -1.8054   13.3160 H   0  0  0  0  0  0  0  0  0  0  0  0
   12.1305   -0.7759   14.7245 H   0  0  0  0  0  0  0  0  0  0  0  0
   10.7237   -2.4797   15.4791 H   0  0  0  0  0  0  0  0  0  0  0  0
   11.4767   -3.6570   14.4112 H   0  0  0  0  0  0  0  0  0  0  0  0
   12.4465   -4.3461   16.4876 H   0  0  0  0  0  0  0  0  0  0  0  0
   12.4273   -2.7087   17.1255 H   0  0  0  0  0  0  0  0  0  0  0  0
   14.6334   -2.8462   16.4696 H   0  0  0  0  0  0  0  0  0  0  0  0
   16.9684   -2.0168   18.3945 H   0  0  0  0  0  0  0  0  0  0  0  0
   17.7414   -0.6619   17.5567 H   0  0  0  0  0  0  0  0  0  0  0  0
   14.7274   -0.7732   18.1091 H   0  0  0  0  0  0  0  0  0  0  0  0
   15.1608    0.7279   20.0215 H   0  0  0  0  0  0  0  0  0  0  0  0
   16.8958    0.5532   19.7975 H   0  0  0  0  0  0  0  0  0  0  0  0
   15.9233   -0.8550   20.2780 H   0  0  0  0  0  0  0  0  0  0  0  0
   16.5571    1.3399   17.5174 H   0  0  0  0  0  0  0  0  0  0  0  0
  1  2  1  0
  2  3  1  0
  3  4  1  0
  4  5  1  0
  5  6  1  0
  6  7  1  0
  7  8  1  0
  8  9  1  0
  9 10  1  0
  3 11  1  0
 11 12  1  0
 12 13  1  0
 12 14  1  0
 10  6  1  0
  1 15  1  0
  1 16  1  0
  1 17  1  0
  2 18  1  0
  2 19  1  0
  4 20  1  0
  4 21  1  0
  5 22  1  0
  5 23  1  0
  6 24  1  0
  7 25  1  0
  7 26  1  0
  8 27  1  0
  8 28  1  0
  9 29  1  0
  9 30  1  0
 10 31  1  0
 11 32  1  0
 11 33  1  0
 12 34  1  0
 13 35  1  0
 13 36  1  0
 13 37  1  0
 14 38  1  0
M  END
>  <Energy>  (579) 
38.983593827793129

>  <compound_id>  (579) 
54699

>  <target_id>  (579) 
1

>  <reference_id>  (579) 
124

>  <inspiration_ids>  (579) 
[124, 76]

>  <energy_score>  (579) 
-41.83525789412755

>  <distance_score>  (579) 
1.1931379621983285

>  <path>  (579) 
/opt/xchem-fragalysis-2/maxwin/BulkDock/SCRATCH/511024/C54699-P124/C54699-P124.minimised.mol

>  <scratch_subdir>  (579) 
/opt/xchem-fragalysis-2/maxwin/BulkDock/SCRATCH/511024/C54699-P124

>  <fragmenstein_runtime>  (579) 
10.405304670333862

>  <fragmenstein_outcome>  (579) 
too moved

>  <fragmenstein_mode>  (579) 
expansion

>  <fragmenstein_error>  (579) 


$$$$
C54699-P76
     RDKit          3D

 38 38  0  0  0  0  0  0  0  0999 V2000
   17.4444   -3.6557   14.8583 C   0  0  0  0  0  0  0  0  0  0  0  0
   17.7565   -2.6612   15.9666 C   0  0  0  0  0  0  0  0  0  0  0  0
   16.6031   -1.8253   16.3374 N   0  0  0  0  0  0  0  0  0  0  0  0
   16.2333   -0.8794   15.2672 C   0  0  0  0  0  0  0  0  0  0  0  0
   14.7223   -0.6564   15.1130 C   0  0  0  0  0  0  0  0  0  0  0  0
   13.9730   -1.9848   15.1363 C   0  0  0  0  0  0  0  0  0  0  0  0
   12.5855   -1.9753   14.5190 C   0  0  0  0  0  0  0  0  0  0  0  0
   11.7657   -2.9235   15.3859 C   0  0  0  0  0  0  0  0  0  0  0  0
   12.7454   -3.5294   16.3769 C   0  0  0  0  0  0  0  0  0  0  0  0
   13.7652   -2.5064   16.4939 N   0  0  0  0  0  0  0  0  0  0  0  0
   16.8601   -1.1589   17.6346 C   0  0  0  0  0  0  0  0  0  0  0  0
   15.8121   -0.1262   18.1175 C   0  0  0  0  0  0  0  0  0  0  0  0
   15.9652    0.1707   19.5973 C   0  0  0  0  0  0  0  0  0  0  0  0
   15.9430    1.1289   17.4416 O   0  0  0  0  0  0  0  0  0  0  0  0
   16.5780   -4.2687   15.1261 H   0  0  0  0  0  0  0  0  0  0  0  0
   17.2526   -3.1746   13.8965 H   0  0  0  0  0  0  0  0  0  0  0  0
   18.2951   -4.3312   14.7173 H   0  0  0  0  0  0  0  0  0  0  0  0
   18.6135   -2.0393   15.6787 H   0  0  0  0  0  0  0  0  0  0  0  0
   18.0701   -3.2503   16.8380 H   0  0  0  0  0  0  0  0  0  0  0  0
   16.7631    0.0754   15.3667 H   0  0  0  0  0  0  0  0  0  0  0  0
   16.5696   -1.2532   14.2935 H   0  0  0  0  0  0  0  0  0  0  0  0
   14.3240    0.0330   15.8588 H   0  0  0  0  0  0  0  0  0  0  0  0
   14.5555   -0.1665   14.1446 H   0  0  0  0  0  0  0  0  0  0  0  0
   14.5895   -2.6887   14.5775 H   0  0  0  0  0  0  0  0  0  0  0  0
   12.6186   -2.3301   13.4831 H   0  0  0  0  0  0  0  0  0  0  0  0
   12.1367   -0.9806   14.5031 H   0  0  0  0  0  0  0  0  0  0  0  0
   11.0003   -2.3430   15.9054 H   0  0  0  0  0  0  0  0  0  0  0  0
   11.2440   -3.6752   14.7903 H   0  0  0  0  0  0  0  0  0  0  0  0
   13.1874   -4.4571   16.0184 H   0  0  0  0  0  0  0  0  0  0  0  0
   12.2919   -3.7498   17.3407 H   0  0  0  0  0  0  0  0  0  0  0  0
   14.6601   -2.8755   16.8270 H   0  0  0  0  0  0  0  0  0  0  0  0
   16.9278   -1.9494   18.3928 H   0  0  0  0  0  0  0  0  0  0  0  0
   17.8376   -0.6595   17.5917 H   0  0  0  0  0  0  0  0  0  0  0  0
   14.8005   -0.5015   17.9646 H   0  0  0  0  0  0  0  0  0  0  0  0
   16.9566    0.5820   19.8174 H   0  0  0  0  0  0  0  0  0  0  0  0
   15.8200   -0.7299   20.2019 H   0  0  0  0  0  0  0  0  0  0  0  0
   15.2347    0.9222   19.9170 H   0  0  0  0  0  0  0  0  0  0  0  0
   16.8685    1.4145   17.5207 H   0  0  0  0  0  0  0  0  0  0  0  0
  1  2  1  0
  2  3  1  0
  3  4  1  0
  4  5  1  0
  5  6  1  0
  6  7  1  0
  7  8  1  0
  8  9  1  0
  9 10  1  0
  3 11  1  0
 11 12  1  0
 12 13  1  0
 12 14  1  0
 10  6  1  0
  1 15  1  0
  1 16  1  0
  1 17  1  0
  2 18  1  0
  2 19  1  0
  4 20  1  0
  4 21  1  0
  5 22  1  0
  5 23  1  0
  6 24  1  0
  7 25  1  0
  7 26  1  0
  8 27  1  0
  8 28  1  0
  9 29  1  0
  9 30  1  0
 10 31  1  0
 11 32  1  0
 11 33  1  0
 12 34  1  0
 13 35  1  0
 13 36  1  0
 13 37  1  0
 14 38  1  0
M  END
>  <Energy>  (580) 
39.970792445366378

>  <compound_id>  (580) 
54699

>  <target_id>  (580) 
1

>  <reference_id>  (580) 
76

>  <inspiration_ids>  (580) 
[124, 76]

>  <energy_score>  (580) 
-40.84805927655435

>  <distance_score>  (580) 
1.1986307818471935

>  <path>  (580) 
/opt/xchem-fragalysis-2/maxwin/BulkDock/SCRATCH/511024/C54699-P76/C54699-P76.minimised.mol

>  <scratch_subdir>  (580) 
/opt/xchem-fragalysis-2/maxwin/BulkDock/SCRATCH/511024/C54699-P76

>  <fragmenstein_runtime>  (580) 
10.662797689437866

>  <fragmenstein_outcome>  (580) 
too moved

>  <fragmenstein_mode>  (580) 
expansion

>  <fragmenstein_error>  (580) 


$$$$
C54700-P124
     RDKit          3D

 35 35  0  0  0  0  0  0  0  0999 V2000
   14.8842    2.2842   12.7771 C   0  0  0  0  0  0  0  0  0  0  0  0
   16.1217    1.5906   13.3340 C   0  0  0  0  0  0  0  0  0  0  0  0
   16.0802    1.4104   14.8579 C   0  0  0  0  0  0  0  0  0  0  0  0
   15.1010    0.4088   15.3193 N   0  0  0  0  0  0  0  0  0  0  0  0
   15.4969   -1.0031   15.3071 C   0  0  0  0  0  0  0  0  0  0  0  0
   14.3570   -1.8326   15.9218 C   0  0  0  0  0  0  0  0  0  0  0  0
   13.1312   -1.9029   15.0154 C   0  0  0  0  0  0  0  0  0  0  0  0
   12.2793   -2.9844   15.6452 C   0  0  0  0  0  0  0  0  0  0  0  0
   13.2419   -3.7714   16.5249 C   0  0  0  0  0  0  0  0  0  0  0  0
   14.5942   -3.2429   16.2613 N   0  0  0  0  0  0  0  0  0  0  0  0
   17.4856    1.2749   15.5350 C   0  0  0  0  0  0  0  0  0  0  0  0
   17.7882    1.9484   16.4420 O   0  0  0  0  0  0  0  0  0  0  0  0
   18.2958    0.1884   14.7730 N   0  0  0  0  0  0  0  0  0  0  0  0
   19.5971   -0.3520   15.0299 C   0  0  0  0  0  0  0  0  0  0  0  0
   13.9805    1.6908   12.9453 H   0  0  0  0  0  0  0  0  0  0  0  0
   14.7435    3.2676   13.2366 H   0  0  0  0  0  0  0  0  0  0  0  0
   14.9903    2.4295   11.6971 H   0  0  0  0  0  0  0  0  0  0  0  0
   16.2297    0.6247   12.8269 H   0  0  0  0  0  0  0  0  0  0  0  0
   17.0023    2.1850   13.0605 H   0  0  0  0  0  0  0  0  0  0  0  0
   15.7078    2.3660   15.2562 H   0  0  0  0  0  0  0  0  0  0  0  0
   14.2142    0.5490   14.8371 H   0  0  0  0  0  0  0  0  0  0  0  0
   16.3843   -1.1553   15.9295 H   0  0  0  0  0  0  0  0  0  0  0  0
   15.7188   -1.3457   14.2907 H   0  0  0  0  0  0  0  0  0  0  0  0
   14.1480   -1.3669   16.8849 H   0  0  0  0  0  0  0  0  0  0  0  0
   12.5894   -0.9590   14.9372 H   0  0  0  0  0  0  0  0  0  0  0  0
   13.4141   -2.1939   13.9964 H   0  0  0  0  0  0  0  0  0  0  0  0
   11.4837   -2.5416   16.2464 H   0  0  0  0  0  0  0  0  0  0  0  0
   11.7978   -3.5921   14.8766 H   0  0  0  0  0  0  0  0  0  0  0  0
   12.9995   -3.6258   17.5826 H   0  0  0  0  0  0  0  0  0  0  0  0
   13.1818   -4.8406   16.3303 H   0  0  0  0  0  0  0  0  0  0  0  0
   15.0058   -3.7205   15.4619 H   0  0  0  0  0  0  0  0  0  0  0  0
   17.7578   -0.1430   13.9847 H   0  0  0  0  0  0  0  0  0  0  0  0
   20.2301   -0.1625   14.1605 H   0  0  0  0  0  0  0  0  0  0  0  0
   19.5008   -1.4283   15.1880 H   0  0  0  0  0  0  0  0  0  0  0  0
   20.0223    0.1226   15.9167 H   0  0  0  0  0  0  0  0  0  0  0  0
  1  2  1  0
  2  3  1  0
  3  4  1  0
  4  5  1  0
  5  6  1  0
  6  7  1  0
  7  8  1  0
  8  9  1  0
  9 10  1  0
  3 11  1  0
 11 12  2  0
 11 13  1  0
 13 14  1  0
 10  6  1  0
  1 15  1  0
  1 16  1  0
  1 17  1  0
  2 18  1  0
  2 19  1  0
  3 20  1  0
  4 21  1  0
  5 22  1  0
  5 23  1  0
  6 24  1  0
  7 25  1  0
  7 26  1  0
  8 27  1  0
  8 28  1  0
  9 29  1  0
  9 30  1  0
 10 31  1  0
 13 32  1  0
 14 33  1  0
 14 34  1  0
 14 35  1  0
M  END
>  <Energy>  (581) 
69.866176518306006

>  <compound_id>  (581) 
54700

>  <target_id>  (581) 
1

>  <reference_id>  (581) 
124

>  <inspiration_ids>  (581) 
[124, 76]

>  <energy_score>  (581) 
-2.9805154224446255

>  <distance_score>  (581) 
2.174010040492443

>  <path>  (581) 
/opt/xchem-fragalysis-2/maxwin/BulkDock/SCRATCH/511024/C54700-P124/C54700-P124.minimised.mol

>  <scratch_subdir>  (581) 
/opt/xchem-fragalysis-2/maxwin/BulkDock/SCRATCH/511024/C54700-P124

>  <fragmenstein_runtime>  (581) 
2.880866765975952

>  <fragmenstein_outcome>  (581) 
too moved

>  <fragmenstein_mode>  (581) 
expansion

>  <fragmenstein_error>  (581) 


$$$$
C54700-P76
     RDKit          3D

 35 35  0  0  0  0  0  0  0  0999 V2000
   14.9739    2.5732   13.4196 C   0  0  0  0  0  0  0  0  0  0  0  0
   16.1204    1.6149   13.1372 C   0  0  0  0  0  0  0  0  0  0  0  0
   16.5923    0.8236   14.3686 C   0  0  0  0  0  0  0  0  0  0  0  0
   15.5852   -0.0042   15.0615 N   0  0  0  0  0  0  0  0  0  0  0  0
   14.8181   -0.9609   14.2655 C   0  0  0  0  0  0  0  0  0  0  0  0
   13.5899   -1.4241   15.0635 C   0  0  0  0  0  0  0  0  0  0  0  0
   12.5098   -2.1140   14.2548 C   0  0  0  0  0  0  0  0  0  0  0  0
   11.7727   -2.9116   15.3093 C   0  0  0  0  0  0  0  0  0  0  0  0
   12.8570   -3.3325   16.2852 C   0  0  0  0  0  0  0  0  0  0  0  0
   13.8862   -2.2960   16.2154 N   0  0  0  0  0  0  0  0  0  0  0  0
   17.9261    0.0393   14.1244 C   0  0  0  0  0  0  0  0  0  0  0  0
   18.8869    0.2733   14.7482 O   0  0  0  0  0  0  0  0  0  0  0  0
   17.7038   -0.9595   12.9566 N   0  0  0  0  0  0  0  0  0  0  0  0
   18.5844   -1.9331   12.3860 C   0  0  0  0  0  0  0  0  0  0  0  0
   14.7339    3.1494   12.5203 H   0  0  0  0  0  0  0  0  0  0  0  0
   14.0693    2.0382   13.7245 H   0  0  0  0  0  0  0  0  0  0  0  0
   15.2402    3.2796   14.2122 H   0  0  0  0  0  0  0  0  0  0  0  0
   15.8219    0.9522   12.3182 H   0  0  0  0  0  0  0  0  0  0  0  0
   16.9683    2.1948   12.7499 H   0  0  0  0  0  0  0  0  0  0  0  0
   16.8823    1.5815   15.1121 H   0  0  0  0  0  0  0  0  0  0  0  0
   14.9466    0.6144   15.5614 H   0  0  0  0  0  0  0  0  0  0  0  0
   15.4283   -1.8309   14.0029 H   0  0  0  0  0  0  0  0  0  0  0  0
   14.4599   -0.5033   13.3380 H   0  0  0  0  0  0  0  0  0  0  0  0
   13.1327   -0.5108   15.4385 H   0  0  0  0  0  0  0  0  0  0  0  0
   11.8468   -1.3913   13.7691 H   0  0  0  0  0  0  0  0  0  0  0  0
   12.9191   -2.7504   13.4700 H   0  0  0  0  0  0  0  0  0  0  0  0
   11.0497   -2.2605   15.8088 H   0  0  0  0  0  0  0  0  0  0  0  0
   11.2144   -3.7479   14.8874 H   0  0  0  0  0  0  0  0  0  0  0  0
   12.4780   -3.4329   17.3028 H   0  0  0  0  0  0  0  0  0  0  0  0
   13.2893   -4.2973   16.0188 H   0  0  0  0  0  0  0  0  0  0  0  0
   14.8177   -2.7029   16.1249 H   0  0  0  0  0  0  0  0  0  0  0  0
   16.7697   -0.8479   12.5907 H   0  0  0  0  0  0  0  0  0  0  0  0
   18.7215   -1.7005   11.3279 H   0  0  0  0  0  0  0  0  0  0  0  0
   18.1260   -2.9189   12.4896 H   0  0  0  0  0  0  0  0  0  0  0  0
   19.5447   -1.9080   12.9052 H   0  0  0  0  0  0  0  0  0  0  0  0
  1  2  1  0
  2  3  1  0
  3  4  1  0
  4  5  1  0
  5  6  1  0
  6  7  1  0
  7  8  1  0
  8  9  1  0
  9 10  1  0
  3 11  1  0
 11 12  2  0
 11 13  1  0
 13 14  1  0
 10  6  1  0
  1 15  1  0
  1 16  1  0
  1 17  1  0
  2 18  1  0
  2 19  1  0
  3 20  1  0
  4 21  1  0
  5 22  1  0
  5 23  1  0
  6 24  1  0
  7 25  1  0
  7 26  1  0
  8 27  1  0
  8 28  1  0
  9 29  1  0
  9 30  1  0
 10 31  1  0
 13 32  1  0
 14 33  1  0
 14 34  1  0
 14 35  1  0
M  END
>  <Energy>  (582) 
70.730031482529512

>  <compound_id>  (582) 
54700

>  <target_id>  (582) 
1

>  <reference_id>  (582) 
76

>  <inspiration_ids>  (582) 
[124, 76]

>  <energy_score>  (582) 
-2.1166604582214745

>  <distance_score>  (582) 
2.197318967015665

>  <path>  (582) 
/opt/xchem-fragalysis-2/maxwin/BulkDock/SCRATCH/511024/C54700-P76/C54700-P76.minimised.mol

>  <scratch_subdir>  (582) 
/opt/xchem-fragalysis-2/maxwin/BulkDock/SCRATCH/511024/C54700-P76

>  <fragmenstein_runtime>  (582) 
2.47188401222229

>  <fragmenstein_outcome>  (582) 
too moved

>  <fragmenstein_mode>  (582) 
expansion

>  <fragmenstein_error>  (582) 


$$$$
C54701-P124
     RDKit          3D

 38 38  0  0  0  0  0  0  0  0999 V2000
   18.0879   -2.4820   14.0705 C   0  0  0  0  0  0  0  0  0  0  0  0
   17.7101   -2.5400   15.5501 C   0  0  0  0  0  0  0  0  0  0  0  0
   18.1006   -3.9038   16.1300 C   0  0  0  0  0  0  0  0  0  0  0  0
   16.1997   -2.3121   15.7345 C   0  0  0  0  0  0  0  0  0  0  0  0
   15.6805   -1.0159   15.2907 N   0  0  0  0  0  0  0  0  0  0  0  0
   16.2258    0.1529   15.9959 C   0  0  0  0  0  0  0  0  0  0  0  0
   16.3260    0.0841   17.5325 C   0  0  0  0  0  0  0  0  0  0  0  0
   15.0560    0.0195   18.1667 O   0  0  0  0  0  0  0  0  0  0  0  0
   14.2366   -0.8701   15.0203 C   0  0  0  0  0  0  0  0  0  0  0  0
   13.4537   -2.1577   14.8563 C   0  0  0  0  0  0  0  0  0  0  0  0
   12.0163   -2.0058   14.3918 C   0  0  0  0  0  0  0  0  0  0  0  0
   11.1958   -2.8260   15.3573 C   0  0  0  0  0  0  0  0  0  0  0  0
   12.1211   -3.7255   16.0039 N   0  0  0  0  0  0  0  0  0  0  0  0
   13.3725   -3.0172   16.1198 C   0  0  0  0  0  0  0  0  0  0  0  0
   17.5428   -3.2294   13.4858 H   0  0  0  0  0  0  0  0  0  0  0  0
   17.8744   -1.4967   13.6439 H   0  0  0  0  0  0  0  0  0  0  0  0
   19.1589   -2.6701   13.9384 H   0  0  0  0  0  0  0  0  0  0  0  0
   18.2782   -1.7732   16.0886 H   0  0  0  0  0  0  0  0  0  0  0  0
   17.5727   -4.7200   15.6245 H   0  0  0  0  0  0  0  0  0  0  0  0
   19.1764   -4.0778   16.0210 H   0  0  0  0  0  0  0  0  0  0  0  0
   17.8609   -3.9544   17.1974 H   0  0  0  0  0  0  0  0  0  0  0  0
   15.7583   -3.1030   15.1236 H   0  0  0  0  0  0  0  0  0  0  0  0
   15.9258   -2.5001   16.7785 H   0  0  0  0  0  0  0  0  0  0  0  0
   15.6604    1.0522   15.7176 H   0  0  0  0  0  0  0  0  0  0  0  0
   17.2380    0.3261   15.6096 H   0  0  0  0  0  0  0  0  0  0  0  0
   16.9289   -0.7666   17.8634 H   0  0  0  0  0  0  0  0  0  0  0  0
   16.8244    0.9918   17.8906 H   0  0  0  0  0  0  0  0  0  0  0  0
   15.2308   -0.0617   19.1208 H   0  0  0  0  0  0  0  0  0  0  0  0
   13.7762   -0.2583   15.7921 H   0  0  0  0  0  0  0  0  0  0  0  0
   14.1444   -0.2843   14.0962 H   0  0  0  0  0  0  0  0  0  0  0  0
   13.9631   -2.6486   14.0334 H   0  0  0  0  0  0  0  0  0  0  0  0
   11.6834   -0.9672   14.3443 H   0  0  0  0  0  0  0  0  0  0  0  0
   11.9166   -2.4210   13.3849 H   0  0  0  0  0  0  0  0  0  0  0  0
   10.7386   -2.1600   16.0811 H   0  0  0  0  0  0  0  0  0  0  0  0
   10.3975   -3.3672   14.8531 H   0  0  0  0  0  0  0  0  0  0  0  0
   11.7852   -4.0961   16.8900 H   0  0  0  0  0  0  0  0  0  0  0  0
   13.3997   -2.4257   17.0360 H   0  0  0  0  0  0  0  0  0  0  0  0
   14.1573   -3.7705   16.1959 H   0  0  0  0  0  0  0  0  0  0  0  0
  1  2  1  0
  2  3  1  0
  2  4  1  0
  4  5  1  0
  5  6  1  0
  6  7  1  0
  7  8  1  0
  5  9  1  0
  9 10  1  0
 10 11  1  0
 11 12  1  0
 12 13  1  0
 13 14  1  0
 14 10  1  0
  1 15  1  0
  1 16  1  0
  1 17  1  0
  2 18  1  0
  3 19  1  0
  3 20  1  0
  3 21  1  0
  4 22  1  0
  4 23  1  0
  6 24  1  0
  6 25  1  0
  7 26  1  0
  7 27  1  0
  8 28  1  0
  9 29  1  0
  9 30  1  0
 10 31  1  0
 11 32  1  0
 11 33  1  0
 12 34  1  0
 12 35  1  0
 13 36  1  0
 14 37  1  0
 14 38  1  0
M  END
>  <Energy>  (583) 
50.100628416700644

>  <compound_id>  (583) 
54701

>  <target_id>  (583) 
1

>  <reference_id>  (583) 
124

>  <inspiration_ids>  (583) 
[124, 76]

>  <energy_score>  (583) 
-29.209515096061637

>  <distance_score>  (583) 
1.71635102435056

>  <path>  (583) 
/opt/xchem-fragalysis-2/maxwin/BulkDock/SCRATCH/511024/C54701-P124/C54701-P124.minimised.mol

>  <scratch_subdir>  (583) 
/opt/xchem-fragalysis-2/maxwin/BulkDock/SCRATCH/511024/C54701-P124

>  <fragmenstein_runtime>  (583) 
11.157869577407837

>  <fragmenstein_outcome>  (583) 
too moved

>  <fragmenstein_mode>  (583) 
expansion

>  <fragmenstein_error>  (583) 


$$$$
C54701-P76
     RDKit          3D

 38 38  0  0  0  0  0  0  0  0999 V2000
   18.0719   -2.2926   13.6723 C   0  0  0  0  0  0  0  0  0  0  0  0
   18.0040   -2.3782   15.1927 C   0  0  0  0  0  0  0  0  0  0  0  0
   18.7527   -3.6241   15.6853 C   0  0  0  0  0  0  0  0  0  0  0  0
   16.5555   -2.4609   15.6678 C   0  0  0  0  0  0  0  0  0  0  0  0
   15.6707   -1.3393   15.3278 N   0  0  0  0  0  0  0  0  0  0  0  0
   15.9546   -0.0829   16.0245 C   0  0  0  0  0  0  0  0  0  0  0  0
   15.8417   -0.1010   17.5550 C   0  0  0  0  0  0  0  0  0  0  0  0
   16.0257    1.1976   18.1039 O   0  0  0  0  0  0  0  0  0  0  0  0
   14.2373   -1.6599   15.2369 C   0  0  0  0  0  0  0  0  0  0  0  0
   13.8072   -2.9068   15.9974 C   0  0  0  0  0  0  0  0  0  0  0  0
   12.3459   -3.2432   15.8628 C   0  0  0  0  0  0  0  0  0  0  0  0
   12.3150   -4.4465   16.7729 C   0  0  0  0  0  0  0  0  0  0  0  0
   13.1907   -4.1459   17.9064 N   0  0  0  0  0  0  0  0  0  0  0  0
   14.0456   -3.0344   17.4893 C   0  0  0  0  0  0  0  0  0  0  0  0
   17.5922   -3.1527   13.1966 H   0  0  0  0  0  0  0  0  0  0  0  0
   17.5835   -1.3850   13.3032 H   0  0  0  0  0  0  0  0  0  0  0  0
   19.1135   -2.2631   13.3346 H   0  0  0  0  0  0  0  0  0  0  0  0
   18.4925   -1.4958   15.6220 H   0  0  0  0  0  0  0  0  0  0  0  0
   18.3134   -4.5432   15.2823 H   0  0  0  0  0  0  0  0  0  0  0  0
   19.8026   -3.5891   15.3751 H   0  0  0  0  0  0  0  0  0  0  0  0
   18.7313   -3.6865   16.7785 H   0  0  0  0  0  0  0  0  0  0  0  0
   16.1859   -3.3793   15.2027 H   0  0  0  0  0  0  0  0  0  0  0  0
   16.5835   -2.6200   16.7458 H   0  0  0  0  0  0  0  0  0  0  0  0
   15.3100    0.7137   15.6287 H   0  0  0  0  0  0  0  0  0  0  0  0
   16.9637    0.2569   15.7588 H   0  0  0  0  0  0  0  0  0  0  0  0
   14.8484   -0.4089   17.8665 H   0  0  0  0  0  0  0  0  0  0  0  0
   16.5762   -0.7690   18.0134 H   0  0  0  0  0  0  0  0  0  0  0  0
   16.9226    1.4897   17.8645 H   0  0  0  0  0  0  0  0  0  0  0  0
   13.6201   -0.7996   15.5085 H   0  0  0  0  0  0  0  0  0  0  0  0
   14.0243   -1.8267   14.1728 H   0  0  0  0  0  0  0  0  0  0  0  0
   14.3584   -3.7510   15.5933 H   0  0  0  0  0  0  0  0  0  0  0  0
   11.7096   -2.4358   16.2329 H   0  0  0  0  0  0  0  0  0  0  0  0
   12.0406   -3.4657   14.8384 H   0  0  0  0  0  0  0  0  0  0  0  0
   11.3089   -4.7117   17.0505 H   0  0  0  0  0  0  0  0  0  0  0  0
   12.7415   -5.3277   16.3056 H   0  0  0  0  0  0  0  0  0  0  0  0
   12.6107   -3.9059   18.7142 H   0  0  0  0  0  0  0  0  0  0  0  0
   13.7944   -2.1289   18.0226 H   0  0  0  0  0  0  0  0  0  0  0  0
   15.0659   -3.2962   17.7634 H   0  0  0  0  0  0  0  0  0  0  0  0
  1  2  1  0
  2  3  1  0
  2  4  1  0
  4  5  1  0
  5  6  1  0
  6  7  1  0
  7  8  1  0
  5  9  1  0
  9 10  1  0
 10 11  1  0
 11 12  1  0
 12 13  1  0
 13 14  1  0
 14 10  1  0
  1 15  1  0
  1 16  1  0
  1 17  1  0
  2 18  1  0
  3 19  1  0
  3 20  1  0
  3 21  1  0
  4 22  1  0
  4 23  1  0
  6 24  1  0
  6 25  1  0
  7 26  1  0
  7 27  1  0
  8 28  1  0
  9 29  1  0
  9 30  1  0
 10 31  1  0
 11 32  1  0
 11 33  1  0
 12 34  1  0
 12 35  1  0
 13 36  1  0
 14 37  1  0
 14 38  1  0
M  END
>  <Energy>  (584) 
54.329210288858938

>  <compound_id>  (584) 
54701

>  <target_id>  (584) 
1

>  <reference_id>  (584) 
76

>  <inspiration_ids>  (584) 
[124, 76]

>  <energy_score>  (584) 
-24.980933223903577

>  <distance_score>  (584) 
1.6460457338027181

>  <path>  (584) 
/opt/xchem-fragalysis-2/maxwin/BulkDock/SCRATCH/511024/C54701-P76/C54701-P76.minimised.mol

>  <scratch_subdir>  (584) 
/opt/xchem-fragalysis-2/maxwin/BulkDock/SCRATCH/511024/C54701-P76

>  <fragmenstein_runtime>  (584) 
10.730340242385864

>  <fragmenstein_outcome>  (584) 
too moved

>  <fragmenstein_mode>  (584) 
expansion

>  <fragmenstein_error>  (584) 


$$$$
C54702-P124
     RDKit          3D

 41 41  0  0  0  0  0  0  0  0999 V2000
   18.9658   -3.6802   14.3483 C   0  0  0  0  0  0  0  0  0  0  0  0
   19.2682   -4.2711   15.7461 C   0  0  0  0  0  0  0  0  0  0  0  0
   18.4400   -5.5694   15.8567 C   0  0  0  0  0  0  0  0  0  0  0  0
   18.8201   -3.1878   16.7551 N   0  0  0  0  0  0  0  0  0  0  0  0
   19.9963   -3.7184   17.5218 C   0  0  0  0  0  0  0  0  0  0  0  0
   17.6658   -3.1210   17.6083 C   0  0  0  0  0  0  0  0  0  0  0  0
   16.8008   -3.9335   17.8210 O   0  0  0  0  0  0  0  0  0  0  0  0
   17.5921   -1.7168   18.2700 C   0  0  0  0  0  0  0  0  0  0  0  0
   16.7432   -0.7734   17.4971 N   0  0  0  0  0  0  0  0  0  0  0  0
   16.8653    0.5718   18.0670 C   0  0  0  0  0  0  0  0  0  0  0  0
   15.3345   -1.1996   17.4566 C   0  0  0  0  0  0  0  0  0  0  0  0
   14.7784   -1.3629   16.0355 C   0  0  0  0  0  0  0  0  0  0  0  0
   14.7001   -0.0877   15.1988 C   0  0  0  0  0  0  0  0  0  0  0  0
   14.7344   -0.5768   13.7551 C   0  0  0  0  0  0  0  0  0  0  0  0
   14.9312   -2.0211   13.8332 N   0  0  0  0  0  0  0  0  0  0  0  0
   15.5670   -2.2794   15.1264 C   0  0  0  0  0  0  0  0  0  0  0  0
   19.3383   -4.3459   13.5616 H   0  0  0  0  0  0  0  0  0  0  0  0
   17.8942   -3.5494   14.1836 H   0  0  0  0  0  0  0  0  0  0  0  0
   19.4520   -2.7064   14.2253 H   0  0  0  0  0  0  0  0  0  0  0  0
   20.3422   -4.5153   15.6580 H   0  0  0  0  0  0  0  0  0  0  0  0
   18.7654   -6.2916   15.0995 H   0  0  0  0  0  0  0  0  0  0  0  0
   17.3734   -5.3815   15.6915 H   0  0  0  0  0  0  0  0  0  0  0  0
   18.5445   -6.0488   16.8342 H   0  0  0  0  0  0  0  0  0  0  0  0
   19.9903   -3.1856   18.4848 H   0  0  0  0  0  0  0  0  0  0  0  0
   19.9388   -4.7707   17.8339 H   0  0  0  0  0  0  0  0  0  0  0  0
   20.9612   -3.4154   17.0871 H   0  0  0  0  0  0  0  0  0  0  0  0
   17.2264   -1.8416   19.2972 H   0  0  0  0  0  0  0  0  0  0  0  0
   18.6096   -1.3137   18.3416 H   0  0  0  0  0  0  0  0  0  0  0  0
   16.5442    0.6054   19.1147 H   0  0  0  0  0  0  0  0  0  0  0  0
   16.2679    1.2946   17.5014 H   0  0  0  0  0  0  0  0  0  0  0  0
   17.9036    0.9176   18.0137 H   0  0  0  0  0  0  0  0  0  0  0  0
   15.1745   -2.1404   17.9953 H   0  0  0  0  0  0  0  0  0  0  0  0
   14.7079   -0.4801   17.9972 H   0  0  0  0  0  0  0  0  0  0  0  0
   13.7673   -1.7841   16.1218 H   0  0  0  0  0  0  0  0  0  0  0  0
   13.7942    0.4842   15.4097 H   0  0  0  0  0  0  0  0  0  0  0  0
   15.5587    0.5682   15.3756 H   0  0  0  0  0  0  0  0  0  0  0  0
   13.8012   -0.3498   13.2306 H   0  0  0  0  0  0  0  0  0  0  0  0
   15.5568   -0.0994   13.2108 H   0  0  0  0  0  0  0  0  0  0  0  0
   15.5140   -2.3667   13.0717 H   0  0  0  0  0  0  0  0  0  0  0  0
   16.6222   -1.9958   15.0810 H   0  0  0  0  0  0  0  0  0  0  0  0
   15.4833   -3.3300   15.4142 H   0  0  0  0  0  0  0  0  0  0  0  0
  1  2  1  0
  2  3  1  0
  2  4  1  0
  4  5  1  0
  4  6  1  0
  6  7  2  0
  6  8  1  0
  8  9  1  0
  9 10  1  0
  9 11  1  0
 11 12  1  0
 12 13  1  0
 13 14  1  0
 14 15  1  0
 15 16  1  0
 16 12  1  0
  1 17  1  0
  1 18  1  0
  1 19  1  0
  2 20  1  0
  3 21  1  0
  3 22  1  0
  3 23  1  0
  5 24  1  0
  5 25  1  0
  5 26  1  0
  8 27  1  0
  8 28  1  0
 10 29  1  0
 10 30  1  0
 10 31  1  0
 11 32  1  0
 11 33  1  0
 12 34  1  0
 13 35  1  0
 13 36  1  0
 14 37  1  0
 14 38  1  0
 15 39  1  0
 16 40  1  0
 16 41  1  0
M  END
>  <Energy>  (585) 
125.54780686778668

>  <compound_id>  (585) 
54702

>  <target_id>  (585) 
1

>  <reference_id>  (585) 
124

>  <inspiration_ids>  (585) 
[124, 76]

>  <energy_score>  (585) 
19.698307730063235

>  <distance_score>  (585) 
3.121196266428371

>  <path>  (585) 
/opt/xchem-fragalysis-2/maxwin/BulkDock/SCRATCH/511024/C54702-P124/C54702-P124.minimised.mol

>  <scratch_subdir>  (585) 
/opt/xchem-fragalysis-2/maxwin/BulkDock/SCRATCH/511024/C54702-P124

>  <fragmenstein_runtime>  (585) 
18.154985427856445

>  <fragmenstein_outcome>  (585) 
too moved

>  <fragmenstein_mode>  (585) 
expansion

>  <fragmenstein_error>  (585) 


$$$$
C54702-P76
     RDKit          3D

 41 41  0  0  0  0  0  0  0  0999 V2000
   17.2977   -2.2343   13.7253 C   0  0  0  0  0  0  0  0  0  0  0  0
   18.4838   -2.1584   14.7151 C   0  0  0  0  0  0  0  0  0  0  0  0
   18.7215   -3.6144   15.1957 C   0  0  0  0  0  0  0  0  0  0  0  0
   18.1107   -1.3307   15.9615 N   0  0  0  0  0  0  0  0  0  0  0  0
   18.7638   -0.2362   15.1680 C   0  0  0  0  0  0  0  0  0  0  0  0
   18.6400   -1.3537   17.2922 C   0  0  0  0  0  0  0  0  0  0  0  0
   19.5737   -1.9625   17.7541 O   0  0  0  0  0  0  0  0  0  0  0  0
   17.8746   -0.3834   18.2284 C   0  0  0  0  0  0  0  0  0  0  0  0
   16.4438   -0.1818   17.8719 N   0  0  0  0  0  0  0  0  0  0  0  0
   16.1448    1.2548   17.8715 C   0  0  0  0  0  0  0  0  0  0  0  0
   15.5270   -0.8855   18.7876 C   0  0  0  0  0  0  0  0  0  0  0  0
   15.1229   -2.3205   18.4282 C   0  0  0  0  0  0  0  0  0  0  0  0
   14.6290   -2.5478   17.0027 C   0  0  0  0  0  0  0  0  0  0  0  0
   14.9074   -4.0204   16.7436 C   0  0  0  0  0  0  0  0  0  0  0  0
   15.5064   -4.5484   17.9725 N   0  0  0  0  0  0  0  0  0  0  0  0
   16.1626   -3.4043   18.6099 C   0  0  0  0  0  0  0  0  0  0  0  0
   17.5540   -2.8733   12.8735 H   0  0  0  0  0  0  0  0  0  0  0  0
   16.4094   -2.6547   14.2072 H   0  0  0  0  0  0  0  0  0  0  0  0
   17.0080   -1.2605   13.3219 H   0  0  0  0  0  0  0  0  0  0  0  0
   19.4322   -1.9365   14.1932 H   0  0  0  0  0  0  0  0  0  0  0  0
   18.8733   -4.2870   14.3442 H   0  0  0  0  0  0  0  0  0  0  0  0
   17.8799   -3.9913   15.7828 H   0  0  0  0  0  0  0  0  0  0  0  0
   19.6181   -3.6751   15.8208 H   0  0  0  0  0  0  0  0  0  0  0  0
   18.5779    0.6828   15.7432 H   0  0  0  0  0  0  0  0  0  0  0  0
   19.8641   -0.3013   15.1725 H   0  0  0  0  0  0  0  0  0  0  0  0
   18.3355    0.0073   14.1885 H   0  0  0  0  0  0  0  0  0  0  0  0
   18.4361    0.5596   18.1842 H   0  0  0  0  0  0  0  0  0  0  0  0
   17.9809   -0.7532   19.2557 H   0  0  0  0  0  0  0  0  0  0  0  0
   15.1186    1.4363   17.5343 H   0  0  0  0  0  0  0  0  0  0  0  0
   16.7926    1.7863   17.1654 H   0  0  0  0  0  0  0  0  0  0  0  0
   16.2703    1.7011   18.8646 H   0  0  0  0  0  0  0  0  0  0  0  0
   15.8930   -0.8489   19.8223 H   0  0  0  0  0  0  0  0  0  0  0  0
   14.5809   -0.3305   18.8140 H   0  0  0  0  0  0  0  0  0  0  0  0
   14.2975   -2.5770   19.1071 H   0  0  0  0  0  0  0  0  0  0  0  0
   13.5602   -2.3437   16.9122 H   0  0  0  0  0  0  0  0  0  0  0  0
   15.1588   -1.9285   16.2729 H   0  0  0  0  0  0  0  0  0  0  0  0
   13.9829   -4.5561   16.5130 H   0  0  0  0  0  0  0  0  0  0  0  0
   15.5922   -4.1411   15.9005 H   0  0  0  0  0  0  0  0  0  0  0  0
   16.2004   -5.2634   17.7559 H   0  0  0  0  0  0  0  0  0  0  0  0
   17.1026   -3.1916   18.1033 H   0  0  0  0  0  0  0  0  0  0  0  0
   16.3696   -3.6067   19.6647 H   0  0  0  0  0  0  0  0  0  0  0  0
  1  2  1  0
  2  3  1  0
  2  4  1  0
  4  5  1  0
  4  6  1  0
  6  7  2  0
  6  8  1  0
  8  9  1  0
  9 10  1  0
  9 11  1  0
 11 12  1  0
 12 13  1  0
 13 14  1  0
 14 15  1  0
 15 16  1  0
 16 12  1  0
  1 17  1  0
  1 18  1  0
  1 19  1  0
  2 20  1  0
  3 21  1  0
  3 22  1  0
  3 23  1  0
  5 24  1  0
  5 25  1  0
  5 26  1  0
  8 27  1  0
  8 28  1  0
 10 29  1  0
 10 30  1  0
 10 31  1  0
 11 32  1  0
 11 33  1  0
 12 34  1  0
 13 35  1  0
 13 36  1  0
 14 37  1  0
 14 38  1  0
 15 39  1  0
 16 40  1  0
 16 41  1  0
M  END
>  <Energy>  (586) 
127.55306274787307

>  <compound_id>  (586) 
54702

>  <target_id>  (586) 
1

>  <reference_id>  (586) 
76

>  <inspiration_ids>  (586) 
[124, 76]

>  <energy_score>  (586) 
21.703563610151207

>  <distance_score>  (586) 
3.180236378233418

>  <path>  (586) 
/opt/xchem-fragalysis-2/maxwin/BulkDock/SCRATCH/511024/C54702-P76/C54702-P76.minimised.mol

>  <scratch_subdir>  (586) 
/opt/xchem-fragalysis-2/maxwin/BulkDock/SCRATCH/511024/C54702-P76

>  <fragmenstein_runtime>  (586) 
17.403726816177368

>  <fragmenstein_outcome>  (586) 
too moved

>  <fragmenstein_mode>  (586) 
expansion

>  <fragmenstein_error>  (586) 


$$$$
C54706-P124
     RDKit          3D

 38 38  0  0  0  0  0  0  0  0999 V2000
   17.6803    0.9271   16.3865 C   0  0  0  0  0  0  0  0  0  0  0  0
   16.5226    1.9210   16.2522 C   0  0  0  0  0  0  0  0  0  0  0  0
   16.0918    2.2935   17.7375 C   0  0  0  0  0  0  0  0  0  0  0  0
   16.9156    3.3929   18.2349 N   0  0  0  0  0  0  0  0  0  0  0  0
   15.2100    1.6760   18.2701 O   0  0  0  0  0  0  0  0  0  0  0  0
   15.3520    1.4544   15.4575 N   0  0  0  0  0  0  0  0  0  0  0  0
   14.3516    2.5295   15.3476 C   0  0  0  0  0  0  0  0  0  0  0  0
   15.6733    0.9674   14.1086 C   0  0  0  0  0  0  0  0  0  0  0  0
   15.9273   -0.5396   13.9840 C   0  0  0  0  0  0  0  0  0  0  0  0
   14.8510   -1.4225   14.6190 C   0  0  0  0  0  0  0  0  0  0  0  0
   15.0757   -1.6932   16.1144 C   0  0  0  0  0  0  0  0  0  0  0  0
   13.9663   -2.5378   16.7153 C   0  0  0  0  0  0  0  0  0  0  0  0
   14.5070   -3.9388   16.8071 C   0  0  0  0  0  0  0  0  0  0  0  0
   15.9207   -3.8733   16.2727 C   0  0  0  0  0  0  0  0  0  0  0  0
   16.2857   -2.4742   16.4125 N   0  0  0  0  0  0  0  0  0  0  0  0
   17.3640   -0.0003   16.8674 H   0  0  0  0  0  0  0  0  0  0  0  0
   18.4766    1.3454   17.0132 H   0  0  0  0  0  0  0  0  0  0  0  0
   18.1346    0.6987   15.4191 H   0  0  0  0  0  0  0  0  0  0  0  0
   16.9111    2.8207   15.7571 H   0  0  0  0  0  0  0  0  0  0  0  0
   17.4966    3.7575   17.4599 H   0  0  0  0  0  0  0  0  0  0  0  0
   17.6556    3.6014   17.5416 H   0  0  0  0  0  0  0  0  0  0  0  0
   13.9957    2.8683   16.3247 H   0  0  0  0  0  0  0  0  0  0  0  0
   14.7487    3.3975   14.8083 H   0  0  0  0  0  0  0  0  0  0  0  0
   13.4631    2.1756   14.8142 H   0  0  0  0  0  0  0  0  0  0  0  0
   14.8313    1.1700   13.4309 H   0  0  0  0  0  0  0  0  0  0  0  0
   16.5161    1.5253   13.6799 H   0  0  0  0  0  0  0  0  0  0  0  0
   16.9238   -0.7972   14.3478 H   0  0  0  0  0  0  0  0  0  0  0  0
   15.9496   -0.7670   12.9093 H   0  0  0  0  0  0  0  0  0  0  0  0
   13.8620   -0.9731   14.4636 H   0  0  0  0  0  0  0  0  0  0  0  0
   14.8389   -2.3712   14.0740 H   0  0  0  0  0  0  0  0  0  0  0  0
   15.1186   -0.7490   16.6589 H   0  0  0  0  0  0  0  0  0  0  0  0
   13.0256   -2.4978   16.1572 H   0  0  0  0  0  0  0  0  0  0  0  0
   13.7838   -2.2038   17.7383 H   0  0  0  0  0  0  0  0  0  0  0  0
   14.5056   -4.2502   17.8577 H   0  0  0  0  0  0  0  0  0  0  0  0
   13.8768   -4.6246   16.2402 H   0  0  0  0  0  0  0  0  0  0  0  0
   15.9661   -4.1755   15.2233 H   0  0  0  0  0  0  0  0  0  0  0  0
   16.6010   -4.5194   16.8351 H   0  0  0  0  0  0  0  0  0  0  0  0
   17.0536   -2.2402   15.7915 H   0  0  0  0  0  0  0  0  0  0  0  0
  1  2  1  0
  2  3  1  0
  3  4  1  0
  3  5  2  0
  2  6  1  0
  6  7  1  0
  6  8  1  0
  8  9  1  0
  9 10  1  0
 10 11  1  0
 11 12  1  0
 12 13  1  0
 13 14  1  0
 14 15  1  0
 15 11  1  0
  1 16  1  0
  1 17  1  0
  1 18  1  0
  2 19  1  0
  4 20  1  0
  4 21  1  0
  7 22  1  0
  7 23  1  0
  7 24  1  0
  8 25  1  0
  8 26  1  0
  9 27  1  0
  9 28  1  0
 10 29  1  0
 10 30  1  0
 11 31  1  0
 12 32  1  0
 12 33  1  0
 13 34  1  0
 13 35  1  0
 14 36  1  0
 14 37  1  0
 15 38  1  0
M  END
>  <Energy>  (587) 
220.52959606156304

>  <compound_id>  (587) 
54706

>  <target_id>  (587) 
1

>  <reference_id>  (587) 
124

>  <inspiration_ids>  (587) 
[124, 76]

>  <energy_score>  (587) 
143.35740909805688

>  <distance_score>  (587) 
2.9004640875724137

>  <path>  (587) 
/opt/xchem-fragalysis-2/maxwin/BulkDock/SCRATCH/511024/C54706-P124/C54706-P124.minimised.mol

>  <scratch_subdir>  (587) 
/opt/xchem-fragalysis-2/maxwin/BulkDock/SCRATCH/511024/C54706-P124

>  <fragmenstein_runtime>  (587) 
7.189059734344482

>  <fragmenstein_outcome>  (587) 
too moved

>  <fragmenstein_mode>  (587) 
expansion

>  <fragmenstein_error>  (587) 


$$$$
C54706-P76
     RDKit          3D

 38 38  0  0  0  0  0  0  0  0999 V2000
   17.9711   -0.6237   15.0885 C   0  0  0  0  0  0  0  0  0  0  0  0
   17.1260    0.5265   15.6455 C   0  0  0  0  0  0  0  0  0  0  0  0
   17.1540    0.3652   17.1968 C   0  0  0  0  0  0  0  0  0  0  0  0
   16.1597   -0.6102   17.5898 N   0  0  0  0  0  0  0  0  0  0  0  0
   17.9466    0.9817   17.8535 O   0  0  0  0  0  0  0  0  0  0  0  0
   15.6892    0.5434   15.2058 N   0  0  0  0  0  0  0  0  0  0  0  0
   15.0740    1.8144   15.6501 C   0  0  0  0  0  0  0  0  0  0  0  0
   15.5213    0.4378   13.7455 C   0  0  0  0  0  0  0  0  0  0  0  0
   15.2318   -0.9817   13.2422 C   0  0  0  0  0  0  0  0  0  0  0  0
   13.8565   -1.5459   13.6183 C   0  0  0  0  0  0  0  0  0  0  0  0
   13.6169   -1.7758   15.1135 C   0  0  0  0  0  0  0  0  0  0  0  0
   12.4162   -2.6831   15.4018 C   0  0  0  0  0  0  0  0  0  0  0  0
   12.8812   -3.6335   16.4941 C   0  0  0  0  0  0  0  0  0  0  0  0
   14.1775   -3.0628   17.0031 C   0  0  0  0  0  0  0  0  0  0  0  0
   14.7609   -2.3656   15.8479 N   0  0  0  0  0  0  0  0  0  0  0  0
   17.5392   -1.6047   15.3097 H   0  0  0  0  0  0  0  0  0  0  0  0
   18.9709   -0.6120   15.5387 H   0  0  0  0  0  0  0  0  0  0  0  0
   18.1072   -0.5387   14.0063 H   0  0  0  0  0  0  0  0  0  0  0  0
   17.6087    1.4784   15.3885 H   0  0  0  0  0  0  0  0  0  0  0  0
   15.5648   -0.8511   16.7522 H   0  0  0  0  0  0  0  0  0  0  0  0
   15.7259   -1.0279   16.7225 H   0  0  0  0  0  0  0  0  0  0  0  0
   15.1221    1.9308   16.7375 H   0  0  0  0  0  0  0  0  0  0  0  0
   15.5536    2.6847   15.1871 H   0  0  0  0  0  0  0  0  0  0  0  0
   14.0086    1.8305   15.3944 H   0  0  0  0  0  0  0  0  0  0  0  0
   14.6761    1.0543   13.4083 H   0  0  0  0  0  0  0  0  0  0  0  0
   16.3939    0.8505   13.2231 H   0  0  0  0  0  0  0  0  0  0  0  0
   16.0196   -1.6803   13.5377 H   0  0  0  0  0  0  0  0  0  0  0  0
   15.2755   -0.9486   12.1450 H   0  0  0  0  0  0  0  0  0  0  0  0
   13.0783   -0.8688   13.2431 H   0  0  0  0  0  0  0  0  0  0  0  0
   13.7248   -2.4757   13.0577 H   0  0  0  0  0  0  0  0  0  0  0  0
   13.4243   -0.7936   15.5450 H   0  0  0  0  0  0  0  0  0  0  0  0
   12.0709   -3.2374   14.5242 H   0  0  0  0  0  0  0  0  0  0  0  0
   11.5640   -2.0935   15.7510 H   0  0  0  0  0  0  0  0  0  0  0  0
   12.1499   -3.7449   17.2877 H   0  0  0  0  0  0  0  0  0  0  0  0
   13.0596   -4.6329   16.1016 H   0  0  0  0  0  0  0  0  0  0  0  0
   14.0005   -2.3527   17.8145 H   0  0  0  0  0  0  0  0  0  0  0  0
   14.8519   -3.8369   17.3821 H   0  0  0  0  0  0  0  0  0  0  0  0
   15.1885   -3.0772   15.2453 H   0  0  0  0  0  0  0  0  0  0  0  0
  1  2  1  0
  2  3  1  0
  3  4  1  0
  3  5  2  0
  2  6  1  0
  6  7  1  0
  6  8  1  0
  8  9  1  0
  9 10  1  0
 10 11  1  0
 11 12  1  0
 12 13  1  0
 13 14  1  0
 14 15  1  0
 15 11  1  0
  1 16  1  0
  1 17  1  0
  1 18  1  0
  2 19  1  0
  4 20  1  0
  4 21  1  0
  7 22  1  0
  7 23  1  0
  7 24  1  0
  8 25  1  0
  8 26  1  0
  9 27  1  0
  9 28  1  0
 10 29  1  0
 10 30  1  0
 11 31  1  0
 12 32  1  0
 12 33  1  0
 13 34  1  0
 13 35  1  0
 14 36  1  0
 14 37  1  0
 15 38  1  0
M  END
>  <Energy>  (588) 
186.65898671666838

>  <compound_id>  (588) 
54706

>  <target_id>  (588) 
1

>  <reference_id>  (588) 
76

>  <inspiration_ids>  (588) 
[124, 76]

>  <energy_score>  (588) 
109.48679975316307

>  <distance_score>  (588) 
2.516491713063612

>  <path>  (588) 
/opt/xchem-fragalysis-2/maxwin/BulkDock/SCRATCH/511024/C54706-P76/C54706-P76.minimised.mol

>  <scratch_subdir>  (588) 
/opt/xchem-fragalysis-2/maxwin/BulkDock/SCRATCH/511024/C54706-P76

>  <fragmenstein_runtime>  (588) 
5.7758708000183105

>  <fragmenstein_outcome>  (588) 
too moved

>  <fragmenstein_mode>  (588) 
expansion

>  <fragmenstein_error>  (588) 


$$$$
C54707-P124
     RDKit          3D

 38 38  0  0  0  0  0  0  0  0999 V2000
   15.2818    2.9899   18.4268 C   0  0  0  0  0  0  0  0  0  0  0  0
   16.1483    1.8633   17.8683 C   0  0  0  0  0  0  0  0  0  0  0  0
   15.6956    0.5460   18.5198 C   0  0  0  0  0  0  0  0  0  0  0  0
   16.2858    1.9715   16.2908 C   0  0  0  0  0  0  0  0  0  0  0  0
   17.4015    2.9781   15.9555 C   0  0  0  0  0  0  0  0  0  0  0  0
   15.0963    2.4979   15.6560 O   0  0  0  0  0  0  0  0  0  0  0  0
   16.5961    0.6385   15.5949 C   0  0  0  0  0  0  0  0  0  0  0  0
   15.3431   -0.1310   15.4920 N   0  0  0  0  0  0  0  0  0  0  0  0
   15.6595   -1.4791   15.0487 C   0  0  0  0  0  0  0  0  0  0  0  0
   14.5651   -2.4882   15.3847 C   0  0  0  0  0  0  0  0  0  0  0  0
   13.1909   -2.1532   14.8021 C   0  0  0  0  0  0  0  0  0  0  0  0
   12.2102   -2.9400   15.6603 C   0  0  0  0  0  0  0  0  0  0  0  0
   13.0685   -3.5861   16.7358 C   0  0  0  0  0  0  0  0  0  0  0  0
   14.2902   -2.7695   16.8050 N   0  0  0  0  0  0  0  0  0  0  0  0
   14.2378    2.8878   18.1158 H   0  0  0  0  0  0  0  0  0  0  0  0
   15.6374    3.9710   18.0976 H   0  0  0  0  0  0  0  0  0  0  0  0
   15.3021    2.9922   19.5224 H   0  0  0  0  0  0  0  0  0  0  0  0
   17.1620    2.0132   18.2680 H   0  0  0  0  0  0  0  0  0  0  0  0
   14.6502    0.3235   18.3143 H   0  0  0  0  0  0  0  0  0  0  0  0
   16.3154   -0.2969   18.2016 H   0  0  0  0  0  0  0  0  0  0  0  0
   15.7952    0.6118   19.6100 H   0  0  0  0  0  0  0  0  0  0  0  0
   17.1858    3.9663   16.3755 H   0  0  0  0  0  0  0  0  0  0  0  0
   17.4849    3.1235   14.8719 H   0  0  0  0  0  0  0  0  0  0  0  0
   18.3733    2.6434   16.3330 H   0  0  0  0  0  0  0  0  0  0  0  0
   14.6380    1.7209   15.2698 H   0  0  0  0  0  0  0  0  0  0  0  0
   16.9561    0.8179   14.5740 H   0  0  0  0  0  0  0  0  0  0  0  0
   17.3834    0.1064   16.1420 H   0  0  0  0  0  0  0  0  0  0  0  0
   14.9079   -0.1991   16.4038 H   0  0  0  0  0  0  0  0  0  0  0  0
   16.5852   -1.8412   15.5159 H   0  0  0  0  0  0  0  0  0  0  0  0
   15.8270   -1.4713   13.9648 H   0  0  0  0  0  0  0  0  0  0  0  0
   14.9735   -3.4229   15.0103 H   0  0  0  0  0  0  0  0  0  0  0  0
   13.1111   -2.4151   13.7429 H   0  0  0  0  0  0  0  0  0  0  0  0
   12.9578   -1.0858   14.8816 H   0  0  0  0  0  0  0  0  0  0  0  0
   11.4700   -2.2633   16.0920 H   0  0  0  0  0  0  0  0  0  0  0  0
   11.6558   -3.6769   15.0761 H   0  0  0  0  0  0  0  0  0  0  0  0
   12.5765   -3.6475   17.7037 H   0  0  0  0  0  0  0  0  0  0  0  0
   13.3287   -4.6066   16.4441 H   0  0  0  0  0  0  0  0  0  0  0  0
   14.0956   -1.9027   17.2923 H   0  0  0  0  0  0  0  0  0  0  0  0
  1  2  1  0
  2  3  1  0
  2  4  1  0
  4  5  1  0
  4  6  1  0
  4  7  1  0
  7  8  1  0
  8  9  1  0
  9 10  1  0
 10 11  1  0
 11 12  1  0
 12 13  1  0
 13 14  1  0
 14 10  1  0
  1 15  1  0
  1 16  1  0
  1 17  1  0
  2 18  1  0
  3 19  1  0
  3 20  1  0
  3 21  1  0
  5 22  1  0
  5 23  1  0
  5 24  1  0
  6 25  1  0
  7 26  1  0
  7 27  1  0
  8 28  1  0
  9 29  1  0
  9 30  1  0
 10 31  1  0
 11 32  1  0
 11 33  1  0
 12 34  1  0
 12 35  1  0
 13 36  1  0
 13 37  1  0
 14 38  1  0
M  END
>  <Energy>  (589) 
66.432303723840931

>  <compound_id>  (589) 
54707

>  <target_id>  (589) 
1

>  <reference_id>  (589) 
124

>  <inspiration_ids>  (589) 
[124, 76]

>  <energy_score>  (589) 
-41.406130872299215

>  <distance_score>  (589) 
1.6251702287771526

>  <path>  (589) 
/opt/xchem-fragalysis-2/maxwin/BulkDock/SCRATCH/511024/C54707-P124/C54707-P124.minimised.mol

>  <scratch_subdir>  (589) 
/opt/xchem-fragalysis-2/maxwin/BulkDock/SCRATCH/511024/C54707-P124

>  <fragmenstein_runtime>  (589) 
1.4634881019592285

>  <fragmenstein_outcome>  (589) 
too moved

>  <fragmenstein_mode>  (589) 
expansion

>  <fragmenstein_error>  (589) 


$$$$
C54707-P76
     RDKit          3D

 38 38  0  0  0  0  0  0  0  0999 V2000
   15.2772    3.0115   18.4336 C   0  0  0  0  0  0  0  0  0  0  0  0
   16.1419    1.8857   17.8711 C   0  0  0  0  0  0  0  0  0  0  0  0
   15.6798    0.5670   18.5132 C   0  0  0  0  0  0  0  0  0  0  0  0
   16.2838    2.0027   16.2944 C   0  0  0  0  0  0  0  0  0  0  0  0
   17.3893    3.0230   15.9667 C   0  0  0  0  0  0  0  0  0  0  0  0
   15.0902    2.5174   15.6578 O   0  0  0  0  0  0  0  0  0  0  0  0
   16.6135    0.6753   15.5965 C   0  0  0  0  0  0  0  0  0  0  0  0
   15.3685   -0.1036   15.4806 N   0  0  0  0  0  0  0  0  0  0  0  0
   15.6989   -1.4580   15.0689 C   0  0  0  0  0  0  0  0  0  0  0  0
   14.6151   -2.4696   15.4301 C   0  0  0  0  0  0  0  0  0  0  0  0
   13.2334   -2.1510   14.8568 C   0  0  0  0  0  0  0  0  0  0  0  0
   12.2698   -2.9430   15.7294 C   0  0  0  0  0  0  0  0  0  0  0  0
   13.1406   -3.5622   16.8124 C   0  0  0  0  0  0  0  0  0  0  0  0
   14.3521   -2.7286   16.8574 N   0  0  0  0  0  0  0  0  0  0  0  0
   14.2341    2.9152   18.1174 H   0  0  0  0  0  0  0  0  0  0  0  0
   15.6372    3.9938   18.1132 H   0  0  0  0  0  0  0  0  0  0  0  0
   15.2926    3.0062   19.5293 H   0  0  0  0  0  0  0  0  0  0  0  0
   17.1551    2.0290   18.2745 H   0  0  0  0  0  0  0  0  0  0  0  0
   14.6338    0.3529   18.3015 H   0  0  0  0  0  0  0  0  0  0  0  0
   16.2963   -0.2774   18.1927 H   0  0  0  0  0  0  0  0  0  0  0  0
   15.7751    0.6258   19.6041 H   0  0  0  0  0  0  0  0  0  0  0  0
   17.1598    4.0083   16.3858 H   0  0  0  0  0  0  0  0  0  0  0  0
   17.4770    3.1703   14.8836 H   0  0  0  0  0  0  0  0  0  0  0  0
   18.3629    2.6994   16.3492 H   0  0  0  0  0  0  0  0  0  0  0  0
   14.6490    1.7392   15.2543 H   0  0  0  0  0  0  0  0  0  0  0  0
   16.9811    0.8598   14.5794 H   0  0  0  0  0  0  0  0  0  0  0  0
   17.4010    0.1505   16.1503 H   0  0  0  0  0  0  0  0  0  0  0  0
   14.9086   -0.1542   16.3815 H   0  0  0  0  0  0  0  0  0  0  0  0
   16.6287   -1.8012   15.5421 H   0  0  0  0  0  0  0  0  0  0  0  0
   15.8649   -1.4728   13.9850 H   0  0  0  0  0  0  0  0  0  0  0  0
   15.0279   -3.4077   15.0674 H   0  0  0  0  0  0  0  0  0  0  0  0
   13.1442   -2.4144   13.7986 H   0  0  0  0  0  0  0  0  0  0  0  0
   12.9913   -1.0858   14.9349 H   0  0  0  0  0  0  0  0  0  0  0  0
   11.5229   -2.2691   16.1517 H   0  0  0  0  0  0  0  0  0  0  0  0
   11.7215   -3.6939   15.1589 H   0  0  0  0  0  0  0  0  0  0  0  0
   12.6546   -3.6069   17.7849 H   0  0  0  0  0  0  0  0  0  0  0  0
   13.4144   -4.5876   16.5453 H   0  0  0  0  0  0  0  0  0  0  0  0
   14.1475   -1.8554   17.3296 H   0  0  0  0  0  0  0  0  0  0  0  0
  1  2  1  0
  2  3  1  0
  2  4  1  0
  4  5  1  0
  4  6  1  0
  4  7  1  0
  7  8  1  0
  8  9  1  0
  9 10  1  0
 10 11  1  0
 11 12  1  0
 12 13  1  0
 13 14  1  0
 14 10  1  0
  1 15  1  0
  1 16  1  0
  1 17  1  0
  2 18  1  0
  3 19  1  0
  3 20  1  0
  3 21  1  0
  5 22  1  0
  5 23  1  0
  5 24  1  0
  6 25  1  0
  7 26  1  0
  7 27  1  0
  8 28  1  0
  9 29  1  0
  9 30  1  0
 10 31  1  0
 11 32  1  0
 11 33  1  0
 12 34  1  0
 12 35  1  0
 13 36  1  0
 13 37  1  0
 14 38  1  0
M  END
>  <Energy>  (590) 
66.644774372056887

>  <compound_id>  (590) 
54707

>  <target_id>  (590) 
1

>  <reference_id>  (590) 
76

>  <inspiration_ids>  (590) 
[124, 76]

>  <energy_score>  (590) 
-41.19366022408383

>  <distance_score>  (590) 
1.6484909580903564

>  <path>  (590) 
/opt/xchem-fragalysis-2/maxwin/BulkDock/SCRATCH/511024/C54707-P76/C54707-P76.minimised.mol

>  <scratch_subdir>  (590) 
/opt/xchem-fragalysis-2/maxwin/BulkDock/SCRATCH/511024/C54707-P76

>  <fragmenstein_runtime>  (590) 
1.3040990829467773

>  <fragmenstein_outcome>  (590) 
too moved

>  <fragmenstein_mode>  (590) 
expansion

>  <fragmenstein_error>  (590) 


$$$$
C54708-P124
     RDKit          3D

 38 38  0  0  0  0  0  0  0  0999 V2000
   18.7327    0.7965   13.6833 C   0  0  0  0  0  0  0  0  0  0  0  0
   18.3306   -0.3673   14.4160 N   0  0  0  0  0  0  0  0  0  0  0  0
   18.8600   -0.9483   15.7499 C   0  0  0  0  0  0  0  0  0  0  0  0
   19.7568   -0.6121   16.4189 O   0  0  0  0  0  0  0  0  0  0  0  0
   17.9839   -2.1451   16.1808 C   0  0  0  0  0  0  0  0  0  0  0  0
   17.3143   -2.9930   15.0969 C   0  0  0  0  0  0  0  0  0  0  0  0
   17.1037   -1.7968   17.4028 C   0  0  0  0  0  0  0  0  0  0  0  0
   16.0219   -0.8075   17.3396 N   0  0  0  0  0  0  0  0  0  0  0  0
   16.4733    0.5537   17.6027 C   0  0  0  0  0  0  0  0  0  0  0  0
   15.1486   -0.8854   16.1721 C   0  0  0  0  0  0  0  0  0  0  0  0
   14.1181   -2.0172   16.3168 C   0  0  0  0  0  0  0  0  0  0  0  0
   13.0763   -1.9847   15.2068 C   0  0  0  0  0  0  0  0  0  0  0  0
   12.1601   -3.1323   15.5846 C   0  0  0  0  0  0  0  0  0  0  0  0
   13.0229   -4.0110   16.4903 C   0  0  0  0  0  0  0  0  0  0  0  0
   14.3885   -3.4547   16.3792 N   0  0  0  0  0  0  0  0  0  0  0  0
   18.8147    0.5343   12.6266 H   0  0  0  0  0  0  0  0  0  0  0  0
   17.9705    1.5677   13.8153 H   0  0  0  0  0  0  0  0  0  0  0  0
   19.6912    1.1548   14.0649 H   0  0  0  0  0  0  0  0  0  0  0  0
   17.4858   -0.8501   14.1500 H   0  0  0  0  0  0  0  0  0  0  0  0
   18.7403   -2.8404   16.5842 H   0  0  0  0  0  0  0  0  0  0  0  0
   16.4776   -2.5413   14.5705 H   0  0  0  0  0  0  0  0  0  0  0  0
   16.9669   -3.9404   15.5228 H   0  0  0  0  0  0  0  0  0  0  0  0
   18.0526   -3.2505   14.3274 H   0  0  0  0  0  0  0  0  0  0  0  0
   17.7767   -1.5106   18.2242 H   0  0  0  0  0  0  0  0  0  0  0  0
   16.6686   -2.7346   17.7661 H   0  0  0  0  0  0  0  0  0  0  0  0
   15.6173    1.2218   17.7521 H   0  0  0  0  0  0  0  0  0  0  0  0
   17.0780    0.9556   16.7841 H   0  0  0  0  0  0  0  0  0  0  0  0
   17.0611    0.6048   18.5259 H   0  0  0  0  0  0  0  0  0  0  0  0
   14.5591    0.0414   16.1251 H   0  0  0  0  0  0  0  0  0  0  0  0
   15.6761   -0.8915   15.2218 H   0  0  0  0  0  0  0  0  0  0  0  0
   13.7002   -1.8595   17.3100 H   0  0  0  0  0  0  0  0  0  0  0  0
   12.5355   -1.0418   15.1247 H   0  0  0  0  0  0  0  0  0  0  0  0
   13.5426   -2.1671   14.2303 H   0  0  0  0  0  0  0  0  0  0  0  0
   11.2884   -2.7614   16.1278 H   0  0  0  0  0  0  0  0  0  0  0  0
   11.7915   -3.6330   14.6886 H   0  0  0  0  0  0  0  0  0  0  0  0
   12.9854   -5.0623   16.2264 H   0  0  0  0  0  0  0  0  0  0  0  0
   12.6798   -3.9364   17.5281 H   0  0  0  0  0  0  0  0  0  0  0  0
   14.9077   -3.6700   17.2283 H   0  0  0  0  0  0  0  0  0  0  0  0
  1  2  1  0
  2  3  1  0
  3  4  2  0
  3  5  1  0
  5  6  1  0
  5  7  1  0
  7  8  1  0
  8  9  1  0
  8 10  1  0
 10 11  1  0
 11 12  1  0
 12 13  1  0
 13 14  1  0
 14 15  1  0
 15 11  1  0
  1 16  1  0
  1 17  1  0
  1 18  1  0
  2 19  1  0
  5 20  1  0
  6 21  1  0
  6 22  1  0
  6 23  1  0
  7 24  1  0
  7 25  1  0
  9 26  1  0
  9 27  1  0
  9 28  1  0
 10 29  1  0
 10 30  1  0
 11 31  1  0
 12 32  1  0
 12 33  1  0
 13 34  1  0
 13 35  1  0
 14 36  1  0
 14 37  1  0
 15 38  1  0
M  END
>  <Energy>  (591) 
56.97538166307568

>  <compound_id>  (591) 
54708

>  <target_id>  (591) 
1

>  <reference_id>  (591) 
124

>  <inspiration_ids>  (591) 
[124, 76]

>  <energy_score>  (591) 
-0.9450604557418671

>  <distance_score>  (591) 
1.7975368856071592

>  <path>  (591) 
/opt/xchem-fragalysis-2/maxwin/BulkDock/SCRATCH/511024/C54708-P124/C54708-P124.minimised.mol

>  <scratch_subdir>  (591) 
/opt/xchem-fragalysis-2/maxwin/BulkDock/SCRATCH/511024/C54708-P124

>  <fragmenstein_runtime>  (591) 
6.803583383560181

>  <fragmenstein_outcome>  (591) 
too moved

>  <fragmenstein_mode>  (591) 
expansion

>  <fragmenstein_error>  (591) 


$$$$
C54708-P76
     RDKit          3D

 38 38  0  0  0  0  0  0  0  0999 V2000
   20.3380   -4.0650   19.0594 C   0  0  0  0  0  0  0  0  0  0  0  0
   19.2264   -3.6610   18.2509 N   0  0  0  0  0  0  0  0  0  0  0  0
   19.1740   -3.1909   16.7708 C   0  0  0  0  0  0  0  0  0  0  0  0
   20.0169   -3.1354   15.9645 O   0  0  0  0  0  0  0  0  0  0  0  0
   17.7159   -2.7686   16.4987 C   0  0  0  0  0  0  0  0  0  0  0  0
   17.4351   -2.8456   14.9924 C   0  0  0  0  0  0  0  0  0  0  0  0
   17.5171   -1.3562   17.0960 C   0  0  0  0  0  0  0  0  0  0  0  0
   16.1383   -0.9680   17.4098 N   0  0  0  0  0  0  0  0  0  0  0  0
   16.0942    0.3036   18.1329 C   0  0  0  0  0  0  0  0  0  0  0  0
   15.2529   -0.9523   16.2432 C   0  0  0  0  0  0  0  0  0  0  0  0
   14.1759   -2.0386   16.4196 C   0  0  0  0  0  0  0  0  0  0  0  0
   13.1634   -2.0180   15.2848 C   0  0  0  0  0  0  0  0  0  0  0  0
   12.2185   -3.1356   15.6731 C   0  0  0  0  0  0  0  0  0  0  0  0
   13.0404   -4.0193   16.6135 C   0  0  0  0  0  0  0  0  0  0  0  0
   14.4158   -3.4816   16.5881 N   0  0  0  0  0  0  0  0  0  0  0  0
   20.3976   -3.4013   19.9246 H   0  0  0  0  0  0  0  0  0  0  0  0
   21.2578   -4.0046   18.4740 H   0  0  0  0  0  0  0  0  0  0  0  0
   20.1702   -5.0912   19.3932 H   0  0  0  0  0  0  0  0  0  0  0  0
   18.2893   -3.6560   18.6421 H   0  0  0  0  0  0  0  0  0  0  0  0
   17.0699   -3.4971   17.0007 H   0  0  0  0  0  0  0  0  0  0  0  0
   17.8636   -3.7645   14.5738 H   0  0  0  0  0  0  0  0  0  0  0  0
   17.8979   -2.0081   14.4586 H   0  0  0  0  0  0  0  0  0  0  0  0
   16.3782   -2.8740   14.7375 H   0  0  0  0  0  0  0  0  0  0  0  0
   17.9739   -0.6128   16.4274 H   0  0  0  0  0  0  0  0  0  0  0  0
   18.0912   -1.2947   18.0298 H   0  0  0  0  0  0  0  0  0  0  0  0
   15.0704    0.5338   18.4477 H   0  0  0  0  0  0  0  0  0  0  0  0
   16.4679    1.1341   17.5235 H   0  0  0  0  0  0  0  0  0  0  0  0
   16.6932    0.2502   19.0488 H   0  0  0  0  0  0  0  0  0  0  0  0
   15.7738   -1.0131   15.2869 H   0  0  0  0  0  0  0  0  0  0  0  0
   14.7299    0.0130   16.1783 H   0  0  0  0  0  0  0  0  0  0  0  0
   13.7396   -1.8162   17.3914 H   0  0  0  0  0  0  0  0  0  0  0  0
   12.6455   -1.0665   15.1663 H   0  0  0  0  0  0  0  0  0  0  0  0
   13.6491   -2.2319   14.3256 H   0  0  0  0  0  0  0  0  0  0  0  0
   11.3510   -2.7262   16.1919 H   0  0  0  0  0  0  0  0  0  0  0  0
   11.8433   -3.6438   14.7850 H   0  0  0  0  0  0  0  0  0  0  0  0
   13.0134   -5.0728   16.3488 H   0  0  0  0  0  0  0  0  0  0  0  0
   12.6568   -3.9501   17.6357 H   0  0  0  0  0  0  0  0  0  0  0  0
   14.9022   -3.8447   15.7718 H   0  0  0  0  0  0  0  0  0  0  0  0
  1  2  1  0
  2  3  1  0
  3  4  2  0
  3  5  1  0
  5  6  1  0
  5  7  1  0
  7  8  1  0
  8  9  1  0
  8 10  1  0
 10 11  1  0
 11 12  1  0
 12 13  1  0
 13 14  1  0
 14 15  1  0
 15 11  1  0
  1 16  1  0
  1 17  1  0
  1 18  1  0
  2 19  1  0
  5 20  1  0
  6 21  1  0
  6 22  1  0
  6 23  1  0
  7 24  1  0
  7 25  1  0
  9 26  1  0
  9 27  1  0
  9 28  1  0
 10 29  1  0
 10 30  1  0
 11 31  1  0
 12 32  1  0
 12 33  1  0
 13 34  1  0
 13 35  1  0
 14 36  1  0
 14 37  1  0
 15 38  1  0
M  END
>  <Energy>  (592) 
50.194037589228564

>  <compound_id>  (592) 
54708

>  <target_id>  (592) 
1

>  <reference_id>  (592) 
76

>  <inspiration_ids>  (592) 
[124, 76]

>  <energy_score>  (592) 
-7.726404529588422

>  <distance_score>  (592) 
1.929647468926055

>  <path>  (592) 
/opt/xchem-fragalysis-2/maxwin/BulkDock/SCRATCH/511024/C54708-P76/C54708-P76.minimised.mol

>  <scratch_subdir>  (592) 
/opt/xchem-fragalysis-2/maxwin/BulkDock/SCRATCH/511024/C54708-P76

>  <fragmenstein_runtime>  (592) 
7.06341552734375

>  <fragmenstein_outcome>  (592) 
too moved

>  <fragmenstein_mode>  (592) 
expansion

>  <fragmenstein_error>  (592) 


$$$$
C54709-P124
     RDKit          3D

 36 36  0  0  0  0  0  0  0  0999 V2000
   17.2010   -1.9836   17.6011 C   0  0  0  0  0  0  0  0  0  0  0  0
   17.2753   -2.4278   16.1746 C   0  0  0  0  0  0  0  0  0  0  0  0
   17.1126   -1.6745   15.0711 C   0  0  0  0  0  0  0  0  0  0  0  0
   16.8172   -0.2020   15.0040 C   0  0  0  0  0  0  0  0  0  0  0  0
   15.4106    0.1276   14.6572 N   0  0  0  0  0  0  0  0  0  0  0  0
   15.2270    1.6105   14.7501 C   0  0  0  0  0  0  0  0  0  0  0  0
   15.9002    2.3699   13.6039 C   0  0  0  0  0  0  0  0  0  0  0  0
   15.3819    1.9163   12.3587 O   0  0  0  0  0  0  0  0  0  0  0  0
   14.4956   -0.4875   15.6400 C   0  0  0  0  0  0  0  0  0  0  0  0
   14.0175   -1.9330   15.3641 C   0  0  0  0  0  0  0  0  0  0  0  0
   12.7299   -2.0043   14.5363 C   0  0  0  0  0  0  0  0  0  0  0  0
   11.8028   -2.9232   15.3193 C   0  0  0  0  0  0  0  0  0  0  0  0
   12.6951   -3.6165   16.3274 C   0  0  0  0  0  0  0  0  0  0  0  0
   13.6974   -2.6109   16.6397 N   0  0  0  0  0  0  0  0  0  0  0  0
   18.1681   -2.1518   18.0856 H   0  0  0  0  0  0  0  0  0  0  0  0
   16.9480   -0.9286   17.7196 H   0  0  0  0  0  0  0  0  0  0  0  0
   16.4513   -2.5725   18.1374 H   0  0  0  0  0  0  0  0  0  0  0  0
   17.4821   -3.4879   16.0310 H   0  0  0  0  0  0  0  0  0  0  0  0
   17.1832   -2.1690   14.1022 H   0  0  0  0  0  0  0  0  0  0  0  0
   17.1147    0.2916   15.9369 H   0  0  0  0  0  0  0  0  0  0  0  0
   17.4809    0.2006   14.2297 H   0  0  0  0  0  0  0  0  0  0  0  0
   15.5709    1.9972   15.7175 H   0  0  0  0  0  0  0  0  0  0  0  0
   14.1559    1.8378   14.6664 H   0  0  0  0  0  0  0  0  0  0  0  0
   16.9865    2.2474   13.5993 H   0  0  0  0  0  0  0  0  0  0  0  0
   15.6867    3.4402   13.6858 H   0  0  0  0  0  0  0  0  0  0  0  0
   15.2419    0.9547   12.4775 H   0  0  0  0  0  0  0  0  0  0  0  0
   13.5923    0.1229   15.6563 H   0  0  0  0  0  0  0  0  0  0  0  0
   14.9166   -0.3968   16.6501 H   0  0  0  0  0  0  0  0  0  0  0  0
   14.7778   -2.5199   14.8462 H   0  0  0  0  0  0  0  0  0  0  0  0
   12.2530   -1.0336   14.3711 H   0  0  0  0  0  0  0  0  0  0  0  0
   12.9385   -2.4233   13.5465 H   0  0  0  0  0  0  0  0  0  0  0  0
   11.0490   -2.3187   15.8329 H   0  0  0  0  0  0  0  0  0  0  0  0
   11.2673   -3.6185   14.6691 H   0  0  0  0  0  0  0  0  0  0  0  0
   12.1558   -3.9356   17.2166 H   0  0  0  0  0  0  0  0  0  0  0  0
   13.1863   -4.4971   15.9209 H   0  0  0  0  0  0  0  0  0  0  0  0
   14.5393   -3.0531   17.0048 H   0  0  0  0  0  0  0  0  0  0  0  0
  1  2  1  0
  2  3  2  3
  3  4  1  0
  4  5  1  0
  5  6  1  0
  6  7  1  0
  7  8  1  0
  5  9  1  0
  9 10  1  0
 10 11  1  0
 11 12  1  0
 12 13  1  0
 13 14  1  0
 14 10  1  0
  1 15  1  0
  1 16  1  0
  1 17  1  0
  2 18  1  0
  3 19  1  0
  4 20  1  0
  4 21  1  0
  6 22  1  0
  6 23  1  0
  7 24  1  0
  7 25  1  0
  8 26  1  0
  9 27  1  0
  9 28  1  0
 10 29  1  0
 11 30  1  0
 11 31  1  0
 12 32  1  0
 12 33  1  0
 13 34  1  0
 13 35  1  0
 14 36  1  0
M  END
>  <Energy>  (593) 
48.667376146498903

>  <compound_id>  (593) 
54709

>  <target_id>  (593) 
1

>  <reference_id>  (593) 
124

>  <inspiration_ids>  (593) 
[124, 76]

>  <energy_score>  (593) 
-56.30365483177698

>  <distance_score>  (593) 
0.9336559359932164

>  <path>  (593) 
/opt/xchem-fragalysis-2/maxwin/BulkDock/SCRATCH/511024/C54709-P124/C54709-P124.minimised.mol

>  <scratch_subdir>  (593) 
/opt/xchem-fragalysis-2/maxwin/BulkDock/SCRATCH/511024/C54709-P124

>  <fragmenstein_runtime>  (593) 
1.4175033569335938

>  <fragmenstein_outcome>  (593) 
acceptable

>  <fragmenstein_mode>  (593) 
expansion

>  <fragmenstein_error>  (593) 


$$$$
C54709-P76
     RDKit          3D

 36 36  0  0  0  0  0  0  0  0999 V2000
   17.2332   -1.9743   17.5977 C   0  0  0  0  0  0  0  0  0  0  0  0
   17.3038   -2.4167   16.1706 C   0  0  0  0  0  0  0  0  0  0  0  0
   17.1407   -1.6621   15.0679 C   0  0  0  0  0  0  0  0  0  0  0  0
   16.8460   -0.1893   15.0022 C   0  0  0  0  0  0  0  0  0  0  0  0
   15.4369    0.1398   14.6648 N   0  0  0  0  0  0  0  0  0  0  0  0
   15.2545    1.6229   14.7514 C   0  0  0  0  0  0  0  0  0  0  0  0
   15.9130    2.3744   13.5917 C   0  0  0  0  0  0  0  0  0  0  0  0
   15.3761    1.9153   12.3564 O   0  0  0  0  0  0  0  0  0  0  0  0
   14.5298   -0.4698   15.6580 C   0  0  0  0  0  0  0  0  0  0  0  0
   14.0481   -1.9148   15.3914 C   0  0  0  0  0  0  0  0  0  0  0  0
   12.7747   -1.9917   14.5431 C   0  0  0  0  0  0  0  0  0  0  0  0
   11.8364   -2.9044   15.3202 C   0  0  0  0  0  0  0  0  0  0  0  0
   12.7106   -3.5851   16.3535 C   0  0  0  0  0  0  0  0  0  0  0  0
   13.7058   -2.5753   16.6705 N   0  0  0  0  0  0  0  0  0  0  0  0
   18.1996   -2.1496   18.0811 H   0  0  0  0  0  0  0  0  0  0  0  0
   16.9881   -0.9175   17.7179 H   0  0  0  0  0  0  0  0  0  0  0  0
   16.4802   -2.5588   18.1339 H   0  0  0  0  0  0  0  0  0  0  0  0
   17.5062   -3.4776   16.0256 H   0  0  0  0  0  0  0  0  0  0  0  0
   17.2072   -2.1565   14.0988 H   0  0  0  0  0  0  0  0  0  0  0  0
   17.1497    0.3045   15.9330 H   0  0  0  0  0  0  0  0  0  0  0  0
   17.5047    0.2127   14.2235 H   0  0  0  0  0  0  0  0  0  0  0  0
   15.6111    2.0153   15.7119 H   0  0  0  0  0  0  0  0  0  0  0  0
   14.1826    1.8507   14.6801 H   0  0  0  0  0  0  0  0  0  0  0  0
   16.9988    2.2495   13.5723 H   0  0  0  0  0  0  0  0  0  0  0  0
   15.7030    3.4456   13.6708 H   0  0  0  0  0  0  0  0  0  0  0  0
   15.2330    0.9552   12.4835 H   0  0  0  0  0  0  0  0  0  0  0  0
   13.6282    0.1417   15.6807 H   0  0  0  0  0  0  0  0  0  0  0  0
   14.9591   -0.3761   16.6643 H   0  0  0  0  0  0  0  0  0  0  0  0
   14.8133   -2.5123   14.8941 H   0  0  0  0  0  0  0  0  0  0  0  0
   12.3021   -1.0221   14.3638 H   0  0  0  0  0  0  0  0  0  0  0  0
   12.9959   -2.4155   13.5576 H   0  0  0  0  0  0  0  0  0  0  0  0
   11.0734   -2.2940   15.8118 H   0  0  0  0  0  0  0  0  0  0  0  0
   11.3120   -3.6063   14.6685 H   0  0  0  0  0  0  0  0  0  0  0  0
   12.1575   -3.8945   17.2368 H   0  0  0  0  0  0  0  0  0  0  0  0
   13.2105   -4.4723   15.9731 H   0  0  0  0  0  0  0  0  0  0  0  0
   14.5416   -3.0118   17.0565 H   0  0  0  0  0  0  0  0  0  0  0  0
  1  2  1  0
  2  3  2  3
  3  4  1  0
  4  5  1  0
  5  6  1  0
  6  7  1  0
  7  8  1  0
  5  9  1  0
  9 10  1  0
 10 11  1  0
 11 12  1  0
 12 13  1  0
 13 14  1  0
 14 10  1  0
  1 15  1  0
  1 16  1  0
  1 17  1  0
  2 18  1  0
  3 19  1  0
  4 20  1  0
  4 21  1  0
  6 22  1  0
  6 23  1  0
  7 24  1  0
  7 25  1  0
  8 26  1  0
  9 27  1  0
  9 28  1  0
 10 29  1  0
 11 30  1  0
 11 31  1  0
 12 32  1  0
 12 33  1  0
 13 34  1  0
 13 35  1  0
 14 36  1  0
M  END
>  <Energy>  (594) 
48.605825246020558

>  <compound_id>  (594) 
54709

>  <target_id>  (594) 
1

>  <reference_id>  (594) 
76

>  <inspiration_ids>  (594) 
[124, 76]

>  <energy_score>  (594) 
-56.365205732255504

>  <distance_score>  (594) 
0.9474905842740058

>  <path>  (594) 
/opt/xchem-fragalysis-2/maxwin/BulkDock/SCRATCH/511024/C54709-P76/C54709-P76.minimised.mol

>  <scratch_subdir>  (594) 
/opt/xchem-fragalysis-2/maxwin/BulkDock/SCRATCH/511024/C54709-P76

>  <fragmenstein_runtime>  (594) 
1.3663108348846436

>  <fragmenstein_outcome>  (594) 
acceptable

>  <fragmenstein_mode>  (594) 
expansion

>  <fragmenstein_error>  (594) 


$$$$
C54710-P124
     RDKit          3D

 32 32  0  0  0  0  0  0  0  0999 V2000
   17.7894   -2.7246   14.2462 C   0  0  0  0  0  0  0  0  0  0  0  0
   17.5196   -2.8539   15.6903 N   0  0  0  0  0  0  0  0  0  0  0  0
   18.7513   -3.3512   16.3434 C   0  0  0  0  0  0  0  0  0  0  0  0
   18.7945   -2.9730   17.8218 C   0  0  0  0  0  0  0  0  0  0  0  0
   19.2425   -1.5249   18.0204 C   0  0  0  0  0  0  0  0  0  0  0  0
   18.2864   -0.5944   17.4651 N   0  0  0  0  0  0  0  0  0  0  0  0
   20.2823   -1.3318   18.5883 O   0  0  0  0  0  0  0  0  0  0  0  0
   16.3867   -3.7835   15.9095 C   0  0  0  0  0  0  0  0  0  0  0  0
   15.0152   -3.1342   16.2189 C   0  0  0  0  0  0  0  0  0  0  0  0
   14.5431   -2.0671   15.2364 C   0  0  0  0  0  0  0  0  0  0  0  0
   15.0724   -0.7537   15.7962 C   0  0  0  0  0  0  0  0  0  0  0  0
   15.5757   -1.0550   17.1476 N   0  0  0  0  0  0  0  0  0  0  0  0
   15.0163   -2.3541   17.5225 C   0  0  0  0  0  0  0  0  0  0  0  0
   18.1201   -3.6711   13.8029 H   0  0  0  0  0  0  0  0  0  0  0  0
   16.9121   -2.3773   13.6966 H   0  0  0  0  0  0  0  0  0  0  0  0
   18.5698   -1.9742   14.0752 H   0  0  0  0  0  0  0  0  0  0  0  0
   18.8410   -4.4388   16.2235 H   0  0  0  0  0  0  0  0  0  0  0  0
   19.6380   -2.9143   15.8641 H   0  0  0  0  0  0  0  0  0  0  0  0
   19.5321   -3.6137   18.3220 H   0  0  0  0  0  0  0  0  0  0  0  0
   17.8472   -3.1386   18.3417 H   0  0  0  0  0  0  0  0  0  0  0  0
   17.4328   -1.1269   17.1479 H   0  0  0  0  0  0  0  0  0  0  0  0
   17.5491   -1.1334   16.9368 H   0  0  0  0  0  0  0  0  0  0  0  0
   16.2824   -4.4650   15.0589 H   0  0  0  0  0  0  0  0  0  0  0  0
   16.6038   -4.4424   16.7615 H   0  0  0  0  0  0  0  0  0  0  0  0
   14.2747   -3.9411   16.2756 H   0  0  0  0  0  0  0  0  0  0  0  0
   13.4454   -2.0387   15.2421 H   0  0  0  0  0  0  0  0  0  0  0  0
   14.8503   -2.2437   14.2044 H   0  0  0  0  0  0  0  0  0  0  0  0
   15.8889   -0.3600   15.1829 H   0  0  0  0  0  0  0  0  0  0  0  0
   14.2852    0.0055   15.8220 H   0  0  0  0  0  0  0  0  0  0  0  0
   15.2870   -0.3264   17.8053 H   0  0  0  0  0  0  0  0  0  0  0  0
   13.9948   -2.2332   17.8863 H   0  0  0  0  0  0  0  0  0  0  0  0
   15.5957   -2.8323   18.3158 H   0  0  0  0  0  0  0  0  0  0  0  0
  1  2  1  0
  2  3  1  0
  3  4  1  0
  4  5  1  0
  5  6  1  0
  5  7  2  0
  2  8  1  0
  8  9  1  0
  9 10  1  0
 10 11  1  0
 11 12  1  0
 12 13  1  0
 13  9  1  0
  1 14  1  0
  1 15  1  0
  1 16  1  0
  3 17  1  0
  3 18  1  0
  4 19  1  0
  4 20  1  0
  6 21  1  0
  6 22  1  0
  8 23  1  0
  8 24  1  0
  9 25  1  0
 10 26  1  0
 10 27  1  0
 11 28  1  0
 11 29  1  0
 12 30  1  0
 13 31  1  0
 13 32  1  0
M  END
>  <Energy>  (595) 
160.24079033524919

>  <compound_id>  (595) 
54710

>  <target_id>  (595) 
1

>  <reference_id>  (595) 
124

>  <inspiration_ids>  (595) 
[124, 76]

>  <energy_score>  (595) 
129.86860964023006

>  <distance_score>  (595) 
3.087927196732558

>  <path>  (595) 
/opt/xchem-fragalysis-2/maxwin/BulkDock/SCRATCH/511024/C54710-P124/C54710-P124.minimised.mol

>  <scratch_subdir>  (595) 
/opt/xchem-fragalysis-2/maxwin/BulkDock/SCRATCH/511024/C54710-P124

>  <fragmenstein_runtime>  (595) 
15.524220705032349

>  <fragmenstein_outcome>  (595) 
too moved

>  <fragmenstein_mode>  (595) 
expansion

>  <fragmenstein_error>  (595) 


$$$$
C54710-P76
     RDKit          3D

 32 32  0  0  0  0  0  0  0  0999 V2000
   18.4615   -1.8942   15.6442 C   0  0  0  0  0  0  0  0  0  0  0  0
   17.3488   -2.8585   15.6968 N   0  0  0  0  0  0  0  0  0  0  0  0
   17.8344   -4.2195   15.3739 C   0  0  0  0  0  0  0  0  0  0  0  0
   18.6620   -4.8171   16.5079 C   0  0  0  0  0  0  0  0  0  0  0  0
   17.8433   -5.4174   17.6528 C   0  0  0  0  0  0  0  0  0  0  0  0
   16.8050   -4.5294   18.1245 N   0  0  0  0  0  0  0  0  0  0  0  0
   18.1961   -6.4919   18.0565 O   0  0  0  0  0  0  0  0  0  0  0  0
   16.3098   -2.4489   14.7169 C   0  0  0  0  0  0  0  0  0  0  0  0
   15.0150   -1.8714   15.3336 C   0  0  0  0  0  0  0  0  0  0  0  0
   15.2345   -0.5561   16.0711 C   0  0  0  0  0  0  0  0  0  0  0  0
   15.4192   -0.9435   17.5330 C   0  0  0  0  0  0  0  0  0  0  0  0
   15.1230   -2.3720   17.6227 N   0  0  0  0  0  0  0  0  0  0  0  0
   14.3923   -2.7483   16.4130 C   0  0  0  0  0  0  0  0  0  0  0  0
   18.1085   -0.8738   15.8197 H   0  0  0  0  0  0  0  0  0  0  0  0
   19.1944   -2.0862   16.4327 H   0  0  0  0  0  0  0  0  0  0  0  0
   18.9799   -1.9115   14.6784 H   0  0  0  0  0  0  0  0  0  0  0  0
   16.9797   -4.8877   15.2094 H   0  0  0  0  0  0  0  0  0  0  0  0
   18.4200   -4.2071   14.4458 H   0  0  0  0  0  0  0  0  0  0  0  0
   19.3904   -4.1235   16.9368 H   0  0  0  0  0  0  0  0  0  0  0  0
   19.2471   -5.6417   16.0780 H   0  0  0  0  0  0  0  0  0  0  0  0
   16.7056   -3.7266   17.4478 H   0  0  0  0  0  0  0  0  0  0  0  0
   16.8638   -3.6202   17.5949 H   0  0  0  0  0  0  0  0  0  0  0  0
   16.7098   -1.7293   13.9890 H   0  0  0  0  0  0  0  0  0  0  0  0
   16.0092   -3.3036   14.1084 H   0  0  0  0  0  0  0  0  0  0  0  0
   14.3010   -1.7202   14.5145 H   0  0  0  0  0  0  0  0  0  0  0  0
   14.3416    0.0701   15.9659 H   0  0  0  0  0  0  0  0  0  0  0  0
   16.0720    0.0272   15.6791 H   0  0  0  0  0  0  0  0  0  0  0  0
   16.4469   -0.7618   17.8627 H   0  0  0  0  0  0  0  0  0  0  0  0
   14.7603   -0.3585   18.1812 H   0  0  0  0  0  0  0  0  0  0  0  0
   14.6007   -2.6064   18.4685 H   0  0  0  0  0  0  0  0  0  0  0  0
   13.3266   -2.5236   16.5286 H   0  0  0  0  0  0  0  0  0  0  0  0
   14.4914   -3.8177   16.2093 H   0  0  0  0  0  0  0  0  0  0  0  0
  1  2  1  0
  2  3  1  0
  3  4  1  0
  4  5  1  0
  5  6  1  0
  5  7  2  0
  2  8  1  0
  8  9  1  0
  9 10  1  0
 10 11  1  0
 11 12  1  0
 12 13  1  0
 13  9  1  0
  1 14  1  0
  1 15  1  0
  1 16  1  0
  3 17  1  0
  3 18  1  0
  4 19  1  0
  4 20  1  0
  6 21  1  0
  6 22  1  0
  8 23  1  0
  8 24  1  0
  9 25  1  0
 10 26  1  0
 10 27  1  0
 11 28  1  0
 11 29  1  0
 12 30  1  0
 13 31  1  0
 13 32  1  0
M  END
>  <Energy>  (596) 
164.07546879564339

>  <compound_id>  (596) 
54710

>  <target_id>  (596) 
1

>  <reference_id>  (596) 
76

>  <inspiration_ids>  (596) 
[124, 76]

>  <energy_score>  (596) 
133.70328810062296

>  <distance_score>  (596) 
3.924254224174079

>  <path>  (596) 
/opt/xchem-fragalysis-2/maxwin/BulkDock/SCRATCH/511024/C54710-P76/C54710-P76.minimised.mol

>  <scratch_subdir>  (596) 
/opt/xchem-fragalysis-2/maxwin/BulkDock/SCRATCH/511024/C54710-P76

>  <fragmenstein_runtime>  (596) 
15.104379653930664

>  <fragmenstein_outcome>  (596) 
too moved

>  <fragmenstein_mode>  (596) 
expansion

>  <fragmenstein_error>  (596) 


$$$$
C54711-P124
     RDKit          3D

 38 38  0  0  0  0  0  0  0  0999 V2000
   15.9916    2.3021   18.9585 C   0  0  0  0  0  0  0  0  0  0  0  0
   15.9503    3.3557   17.8712 C   0  0  0  0  0  0  0  0  0  0  0  0
   15.5556    2.7404   16.6390 N   0  0  0  0  0  0  0  0  0  0  0  0
   16.4141    2.2166   15.4509 C   0  0  0  0  0  0  0  0  0  0  0  0
   17.5661    2.2781   15.2647 O   0  0  0  0  0  0  0  0  0  0  0  0
   15.4478    1.4402   14.5123 C   0  0  0  0  0  0  0  0  0  0  0  0
   14.4037    2.3864   13.9137 C   0  0  0  0  0  0  0  0  0  0  0  0
   14.7384    0.3965   15.2778 N   0  0  0  0  0  0  0  0  0  0  0  0
   15.3755   -0.9408   15.3155 C   0  0  0  0  0  0  0  0  0  0  0  0
   16.6278   -0.9540   16.1909 C   0  0  0  0  0  0  0  0  0  0  0  0
   14.2993   -1.8735   15.9251 C   0  0  0  0  0  0  0  0  0  0  0  0
   13.0648   -1.9796   15.0306 C   0  0  0  0  0  0  0  0  0  0  0  0
   12.2445   -3.0626   15.6905 C   0  0  0  0  0  0  0  0  0  0  0  0
   13.2446   -3.8424   16.5336 C   0  0  0  0  0  0  0  0  0  0  0  0
   14.5811   -3.2746   16.2645 N   0  0  0  0  0  0  0  0  0  0  0  0
   15.0138    1.8239   19.0826 H   0  0  0  0  0  0  0  0  0  0  0  0
   16.2770    2.7515   19.9145 H   0  0  0  0  0  0  0  0  0  0  0  0
   16.7174    1.5175   18.7199 H   0  0  0  0  0  0  0  0  0  0  0  0
   16.9387    3.8041   17.7364 H   0  0  0  0  0  0  0  0  0  0  0  0
   15.2246    4.1380   18.1097 H   0  0  0  0  0  0  0  0  0  0  0  0
   14.5741    2.5897   16.4399 H   0  0  0  0  0  0  0  0  0  0  0  0
   16.0340    1.0031   13.6955 H   0  0  0  0  0  0  0  0  0  0  0  0
   14.8915    3.2525   13.4532 H   0  0  0  0  0  0  0  0  0  0  0  0
   13.8283    1.8720   13.1353 H   0  0  0  0  0  0  0  0  0  0  0  0
   13.6846    2.7678   14.6456 H   0  0  0  0  0  0  0  0  0  0  0  0
   14.6419    0.7076   16.2432 H   0  0  0  0  0  0  0  0  0  0  0  0
   15.6217   -1.2794   14.3021 H   0  0  0  0  0  0  0  0  0  0  0  0
   17.4249   -0.3465   15.7537 H   0  0  0  0  0  0  0  0  0  0  0  0
   16.4239   -0.5795   17.2000 H   0  0  0  0  0  0  0  0  0  0  0  0
   17.0258   -1.9699   16.2870 H   0  0  0  0  0  0  0  0  0  0  0  0
   14.0728   -1.4441   16.9007 H   0  0  0  0  0  0  0  0  0  0  0  0
   12.4996   -1.0497   14.9448 H   0  0  0  0  0  0  0  0  0  0  0  0
   13.3432   -2.2783   14.0131 H   0  0  0  0  0  0  0  0  0  0  0  0
   11.7280   -3.6691   14.9452 H   0  0  0  0  0  0  0  0  0  0  0  0
   11.4774   -2.6161   16.3236 H   0  0  0  0  0  0  0  0  0  0  0  0
   13.0143   -3.7315   17.5985 H   0  0  0  0  0  0  0  0  0  0  0  0
   13.2084   -4.9059   16.3105 H   0  0  0  0  0  0  0  0  0  0  0  0
   15.0010   -3.7352   15.4583 H   0  0  0  0  0  0  0  0  0  0  0  0
  1  2  1  0
  2  3  1  0
  3  4  1  0
  4  5  2  0
  4  6  1  0
  6  7  1  0
  6  8  1  0
  8  9  1  0
  9 10  1  0
  9 11  1  0
 11 12  1  0
 12 13  1  0
 13 14  1  0
 14 15  1  0
 15 11  1  0
  1 16  1  0
  1 17  1  0
  1 18  1  0
  2 19  1  0
  2 20  1  0
  3 21  1  0
  6 22  1  0
  7 23  1  0
  7 24  1  0
  7 25  1  0
  8 26  1  0
  9 27  1  0
 10 28  1  0
 10 29  1  0
 10 30  1  0
 11 31  1  0
 12 32  1  0
 12 33  1  0
 13 34  1  0
 13 35  1  0
 14 36  1  0
 14 37  1  0
 15 38  1  0
M  END
>  <Energy>  (597) 
64.315144937947451

>  <compound_id>  (597) 
54711

>  <target_id>  (597) 
1

>  <reference_id>  (597) 
124

>  <inspiration_ids>  (597) 
[124, 76]

>  <energy_score>  (597) 
-11.245185915809358

>  <distance_score>  (597) 
1.7020351991016691

>  <path>  (597) 
/opt/xchem-fragalysis-2/maxwin/BulkDock/SCRATCH/511024/C54711-P124/C54711-P124.minimised.mol

>  <scratch_subdir>  (597) 
/opt/xchem-fragalysis-2/maxwin/BulkDock/SCRATCH/511024/C54711-P124

>  <fragmenstein_runtime>  (597) 
2.3814892768859863

>  <fragmenstein_outcome>  (597) 
too moved

>  <fragmenstein_mode>  (597) 
expansion

>  <fragmenstein_error>  (597) 


$$$$
C54711-P76
     RDKit          3D

 38 38  0  0  0  0  0  0  0  0999 V2000
   15.9929    1.9252   19.0935 C   0  0  0  0  0  0  0  0  0  0  0  0
   15.8273    3.0121   18.0573 C   0  0  0  0  0  0  0  0  0  0  0  0
   15.4915    2.4335   16.7919 N   0  0  0  0  0  0  0  0  0  0  0  0
   16.3025    2.3560   15.4744 C   0  0  0  0  0  0  0  0  0  0  0  0
   17.3368    2.8188   15.1947 O   0  0  0  0  0  0  0  0  0  0  0  0
   15.4029    1.5897   14.4697 C   0  0  0  0  0  0  0  0  0  0  0  0
   14.3882    2.6049   13.9272 C   0  0  0  0  0  0  0  0  0  0  0  0
   14.6361    0.5054   15.1319 N   0  0  0  0  0  0  0  0  0  0  0  0
   15.3328   -0.8044   15.2445 C   0  0  0  0  0  0  0  0  0  0  0  0
   16.6091   -0.7351   16.0841 C   0  0  0  0  0  0  0  0  0  0  0  0
   14.3369   -1.7830   15.9212 C   0  0  0  0  0  0  0  0  0  0  0  0
   13.0764   -2.0140   15.0905 C   0  0  0  0  0  0  0  0  0  0  0  0
   12.3715   -3.1199   15.8371 C   0  0  0  0  0  0  0  0  0  0  0  0
   13.4701   -3.8232   16.6204 C   0  0  0  0  0  0  0  0  0  0  0  0
   14.7374   -3.1540   16.2724 N   0  0  0  0  0  0  0  0  0  0  0  0
   16.2045    2.3620   20.0742 H   0  0  0  0  0  0  0  0  0  0  0  0
   16.8215    1.2579   18.8350 H   0  0  0  0  0  0  0  0  0  0  0  0
   15.0868    1.3156   19.1782 H   0  0  0  0  0  0  0  0  0  0  0  0
   16.7518    3.5865   17.9477 H   0  0  0  0  0  0  0  0  0  0  0  0
   15.0173    3.6916   18.3374 H   0  0  0  0  0  0  0  0  0  0  0  0
   14.5891    1.9816   16.6625 H   0  0  0  0  0  0  0  0  0  0  0  0
   16.0152    1.1973   13.6506 H   0  0  0  0  0  0  0  0  0  0  0  0
   14.9048    3.4602   13.4772 H   0  0  0  0  0  0  0  0  0  0  0  0
   13.7588    2.1526   13.1525 H   0  0  0  0  0  0  0  0  0  0  0  0
   13.7296    2.9984   14.7100 H   0  0  0  0  0  0  0  0  0  0  0  0
   13.7811    0.3686   14.5879 H   0  0  0  0  0  0  0  0  0  0  0  0
   15.5807   -1.1737   14.2416 H   0  0  0  0  0  0  0  0  0  0  0  0
   17.0661   -1.7259   16.1813 H   0  0  0  0  0  0  0  0  0  0  0  0
   17.3634   -0.0945   15.6184 H   0  0  0  0  0  0  0  0  0  0  0  0
   16.4093   -0.3637   17.0934 H   0  0  0  0  0  0  0  0  0  0  0  0
   14.1223   -1.3410   16.8934 H   0  0  0  0  0  0  0  0  0  0  0  0
   12.4296   -1.1417   15.0005 H   0  0  0  0  0  0  0  0  0  0  0  0
   13.3283   -2.3281   14.0715 H   0  0  0  0  0  0  0  0  0  0  0  0
   11.8154   -3.7650   15.1588 H   0  0  0  0  0  0  0  0  0  0  0  0
   11.6463   -2.6848   16.5204 H   0  0  0  0  0  0  0  0  0  0  0  0
   13.2908   -3.7296   17.6973 H   0  0  0  0  0  0  0  0  0  0  0  0
   13.5145   -4.8870   16.3951 H   0  0  0  0  0  0  0  0  0  0  0  0
   15.1624   -3.6029   15.4615 H   0  0  0  0  0  0  0  0  0  0  0  0
  1  2  1  0
  2  3  1  0
  3  4  1  0
  4  5  2  0
  4  6  1  0
  6  7  1  0
  6  8  1  0
  8  9  1  0
  9 10  1  0
  9 11  1  0
 11 12  1  0
 12 13  1  0
 13 14  1  0
 14 15  1  0
 15 11  1  0
  1 16  1  0
  1 17  1  0
  1 18  1  0
  2 19  1  0
  2 20  1  0
  3 21  1  0
  6 22  1  0
  7 23  1  0
  7 24  1  0
  7 25  1  0
  8 26  1  0
  9 27  1  0
 10 28  1  0
 10 29  1  0
 10 30  1  0
 11 31  1  0
 12 32  1  0
 12 33  1  0
 13 34  1  0
 13 35  1  0
 14 36  1  0
 14 37  1  0
 15 38  1  0
M  END
>  <Energy>  (598) 
60.185853067465516

>  <compound_id>  (598) 
54711

>  <target_id>  (598) 
1

>  <reference_id>  (598) 
76

>  <inspiration_ids>  (598) 
[124, 76]

>  <energy_score>  (598) 
-15.374477786291806

>  <distance_score>  (598) 
1.5485083098721224

>  <path>  (598) 
/opt/xchem-fragalysis-2/maxwin/BulkDock/SCRATCH/511024/C54711-P76/C54711-P76.minimised.mol

>  <scratch_subdir>  (598) 
/opt/xchem-fragalysis-2/maxwin/BulkDock/SCRATCH/511024/C54711-P76

>  <fragmenstein_runtime>  (598) 
2.4129114151000977

>  <fragmenstein_outcome>  (598) 
too moved

>  <fragmenstein_mode>  (598) 
expansion

>  <fragmenstein_error>  (598) 


$$$$
C54712-P124
     RDKit          3D

 35 35  0  0  0  0  0  0  0  0999 V2000
   14.3885    1.8635   14.9583 C   0  0  0  0  0  0  0  0  0  0  0  0
   15.7498    1.2772   14.5545 C   0  0  0  0  0  0  0  0  0  0  0  0
   16.3336    2.2562   13.4993 C   0  0  0  0  0  0  0  0  0  0  0  0
   16.7821    1.2388   15.7154 C   0  0  0  0  0  0  0  0  0  0  0  0
   16.3297    0.5930   17.0426 C   0  0  0  0  0  0  0  0  0  0  0  0
   17.2399   -0.4623   17.4492 N   0  0  0  0  0  0  0  0  0  0  0  0
   15.3541    1.0331   17.5838 O   0  0  0  0  0  0  0  0  0  0  0  0
   15.5924    0.0243   13.7907 N   0  0  0  0  0  0  0  0  0  0  0  0
   15.5654   -1.2692   14.4712 C   0  0  0  0  0  0  0  0  0  0  0  0
   14.3049   -1.6111   15.2842 C   0  0  0  0  0  0  0  0  0  0  0  0
   13.0436   -1.7287   14.4378 C   0  0  0  0  0  0  0  0  0  0  0  0
   12.1398   -2.6713   15.2197 C   0  0  0  0  0  0  0  0  0  0  0  0
   13.0324   -3.3140   16.2721 C   0  0  0  0  0  0  0  0  0  0  0  0
   14.4014   -2.9273   15.9322 N   0  0  0  0  0  0  0  0  0  0  0  0
   13.8336    1.1974   15.6145 H   0  0  0  0  0  0  0  0  0  0  0  0
   13.7534    2.0459   14.0828 H   0  0  0  0  0  0  0  0  0  0  0  0
   14.5098    2.8210   15.4775 H   0  0  0  0  0  0  0  0  0  0  0  0
   17.3143    1.9202   13.1401 H   0  0  0  0  0  0  0  0  0  0  0  0
   15.6770    2.3538   12.6254 H   0  0  0  0  0  0  0  0  0  0  0  0
   16.4632    3.2608   13.9196 H   0  0  0  0  0  0  0  0  0  0  0  0
   17.7155    0.8029   15.3408 H   0  0  0  0  0  0  0  0  0  0  0  0
   17.0522    2.2685   15.9931 H   0  0  0  0  0  0  0  0  0  0  0  0
   18.0388   -0.4926   16.7895 H   0  0  0  0  0  0  0  0  0  0  0  0
   17.9042   -0.6525   16.6762 H   0  0  0  0  0  0  0  0  0  0  0  0
   14.7834    0.0962   13.1700 H   0  0  0  0  0  0  0  0  0  0  0  0
   16.4637   -1.3926   15.0810 H   0  0  0  0  0  0  0  0  0  0  0  0
   15.6761   -2.0291   13.6854 H   0  0  0  0  0  0  0  0  0  0  0  0
   14.1675   -0.8669   16.0668 H   0  0  0  0  0  0  0  0  0  0  0  0
   13.2606   -2.1617   13.4541 H   0  0  0  0  0  0  0  0  0  0  0  0
   12.5664   -0.7593   14.2676 H   0  0  0  0  0  0  0  0  0  0  0  0
   11.3165   -2.1284   15.6915 H   0  0  0  0  0  0  0  0  0  0  0  0
   11.6920   -3.4106   14.5492 H   0  0  0  0  0  0  0  0  0  0  0  0
   12.9208   -4.4005   16.3009 H   0  0  0  0  0  0  0  0  0  0  0  0
   12.7793   -2.9394   17.2646 H   0  0  0  0  0  0  0  0  0  0  0  0
   14.9719   -2.8630   16.7758 H   0  0  0  0  0  0  0  0  0  0  0  0
  1  2  1  0
  2  3  1  0
  2  4  1  0
  4  5  1  0
  5  6  1  0
  5  7  2  0
  2  8  1  0
  8  9  1  0
  9 10  1  0
 10 11  1  0
 11 12  1  0
 12 13  1  0
 13 14  1  0
 14 10  1  0
  1 15  1  0
  1 16  1  0
  1 17  1  0
  3 18  1  0
  3 19  1  0
  3 20  1  0
  4 21  1  0
  4 22  1  0
  6 23  1  0
  6 24  1  0
  8 25  1  0
  9 26  1  0
  9 27  1  0
 10 28  1  0
 11 29  1  0
 11 30  1  0
 12 31  1  0
 12 32  1  0
 13 33  1  0
 13 34  1  0
 14 35  1  0
M  END
>  <Energy>  (599) 
196.65388130919251

>  <compound_id>  (599) 
54712

>  <target_id>  (599) 
1

>  <reference_id>  (599) 
124

>  <inspiration_ids>  (599) 
[124, 76]

>  <energy_score>  (599) 
134.70646036776682

>  <distance_score>  (599) 
1.4486524562066516

>  <path>  (599) 
/opt/xchem-fragalysis-2/maxwin/BulkDock/SCRATCH/511024/C54712-P124/C54712-P124.minimised.mol

>  <scratch_subdir>  (599) 
/opt/xchem-fragalysis-2/maxwin/BulkDock/SCRATCH/511024/C54712-P124

>  <fragmenstein_runtime>  (599) 
2.134573459625244

>  <fragmenstein_outcome>  (599) 
too moved

>  <fragmenstein_mode>  (599) 
expansion

>  <fragmenstein_error>  (599) 


$$$$
C54712-P76
     RDKit          3D

 35 35  0  0  0  0  0  0  0  0999 V2000
   16.0385    2.8407   15.1373 C   0  0  0  0  0  0  0  0  0  0  0  0
   16.1393    1.3775   14.6541 C   0  0  0  0  0  0  0  0  0  0  0  0
   17.0665    1.3729   13.4190 C   0  0  0  0  0  0  0  0  0  0  0  0
   16.7677    0.4648   15.7380 C   0  0  0  0  0  0  0  0  0  0  0  0
   16.2463    0.6622   17.1711 C   0  0  0  0  0  0  0  0  0  0  0  0
   15.2696   -0.3377   17.5373 N   0  0  0  0  0  0  0  0  0  0  0  0
   16.7040    1.5753   17.8017 O   0  0  0  0  0  0  0  0  0  0  0  0
   14.7948    1.0100   14.2095 N   0  0  0  0  0  0  0  0  0  0  0  0
   14.5172   -0.3330   13.7133 C   0  0  0  0  0  0  0  0  0  0  0  0
   13.6326   -1.1015   14.7056 C   0  0  0  0  0  0  0  0  0  0  0  0
   12.5526   -1.9542   14.0793 C   0  0  0  0  0  0  0  0  0  0  0  0
   12.0807   -2.7695   15.2657 C   0  0  0  0  0  0  0  0  0  0  0  0
   13.3245   -2.9584   16.1275 C   0  0  0  0  0  0  0  0  0  0  0  0
   14.3730   -2.0379   15.6011 N   0  0  0  0  0  0  0  0  0  0  0  0
   15.3221    2.9549   15.9591 H   0  0  0  0  0  0  0  0  0  0  0  0
   15.7104    3.5072   14.3299 H   0  0  0  0  0  0  0  0  0  0  0  0
   17.0111    3.2073   15.4855 H   0  0  0  0  0  0  0  0  0  0  0  0
   17.2395    0.3607   13.0377 H   0  0  0  0  0  0  0  0  0  0  0  0
   16.6501    1.9716   12.5997 H   0  0  0  0  0  0  0  0  0  0  0  0
   18.0472    1.7983   13.6636 H   0  0  0  0  0  0  0  0  0  0  0  0
   16.7335   -0.5898   15.4458 H   0  0  0  0  0  0  0  0  0  0  0  0
   17.8456    0.6790   15.8000 H   0  0  0  0  0  0  0  0  0  0  0  0
   15.2025   -1.0486   16.7674 H   0  0  0  0  0  0  0  0  0  0  0  0
   15.0269   -0.9052   16.6890 H   0  0  0  0  0  0  0  0  0  0  0  0
   14.0593    1.3752   14.8166 H   0  0  0  0  0  0  0  0  0  0  0  0
   15.4203   -0.8981   13.4607 H   0  0  0  0  0  0  0  0  0  0  0  0
   13.9676   -0.2112   12.7722 H   0  0  0  0  0  0  0  0  0  0  0  0
   13.1395   -0.3745   15.3451 H   0  0  0  0  0  0  0  0  0  0  0  0
   12.9486   -2.5892   13.2824 H   0  0  0  0  0  0  0  0  0  0  0  0
   11.7463   -1.3462   13.6626 H   0  0  0  0  0  0  0  0  0  0  0  0
   11.3283   -2.2021   15.8216 H   0  0  0  0  0  0  0  0  0  0  0  0
   11.6082   -3.7034   14.9649 H   0  0  0  0  0  0  0  0  0  0  0  0
   13.6873   -3.9897   16.1047 H   0  0  0  0  0  0  0  0  0  0  0  0
   13.1148   -2.7296   17.1748 H   0  0  0  0  0  0  0  0  0  0  0  0
   14.9716   -2.6117   14.9889 H   0  0  0  0  0  0  0  0  0  0  0  0
  1  2  1  0
  2  3  1  0
  2  4  1  0
  4  5  1  0
  5  6  1  0
  5  7  2  0
  2  8  1  0
  8  9  1  0
  9 10  1  0
 10 11  1  0
 11 12  1  0
 12 13  1  0
 13 14  1  0
 14 10  1  0
  1 15  1  0
  1 16  1  0
  1 17  1  0
  3 18  1  0
  3 19  1  0
  3 20  1  0
  4 21  1  0
  4 22  1  0
  6 23  1  0
  6 24  1  0
  8 25  1  0
  9 26  1  0
  9 27  1  0
 10 28  1  0
 11 29  1  0
 11 30  1  0
 12 31  1  0
 12 32  1  0
 13 33  1  0
 13 34  1  0
 14 35  1  0
M  END
>  <Energy>  (600) 
187.49452031855515

>  <compound_id>  (600) 
54712

>  <target_id>  (600) 
1

>  <reference_id>  (600) 
76

>  <inspiration_ids>  (600) 
[124, 76]

>  <energy_score>  (600) 
125.54709937712772

>  <distance_score>  (600) 
1.8066406668989359

>  <path>  (600) 
/opt/xchem-fragalysis-2/maxwin/BulkDock/SCRATCH/511024/C54712-P76/C54712-P76.minimised.mol

>  <scratch_subdir>  (600) 
/opt/xchem-fragalysis-2/maxwin/BulkDock/SCRATCH/511024/C54712-P76

>  <fragmenstein_runtime>  (600) 
2.165369987487793

>  <fragmenstein_outcome>  (600) 
too moved

>  <fragmenstein_mode>  (600) 
expansion

>  <fragmenstein_error>  (600) 


$$$$
C54713-P124
     RDKit          3D

 38 38  0  0  0  0  0  0  0  0999 V2000
   16.6319    0.3136   14.5281 C   0  0  0  0  0  0  0  0  0  0  0  0
   16.3721   -1.1851   14.5009 C   0  0  0  0  0  0  0  0  0  0  0  0
   17.4297   -2.0311   15.2438 C   0  0  0  0  0  0  0  0  0  0  0  0
   17.4288   -3.4603   14.6720 C   0  0  0  0  0  0  0  0  0  0  0  0
   18.3374   -4.2958   15.3786 O   0  0  0  0  0  0  0  0  0  0  0  0
   17.3777   -2.1414   16.7766 C   0  0  0  0  0  0  0  0  0  0  0  0
   17.0172   -0.9799   17.5494 N   0  0  0  0  0  0  0  0  0  0  0  0
   15.6118   -0.6608   17.6604 C   0  0  0  0  0  0  0  0  0  0  0  0
   15.5408    0.3981   18.7777 C   0  0  0  0  0  0  0  0  0  0  0  0
   14.6341   -1.8368   17.8657 C   0  0  0  0  0  0  0  0  0  0  0  0
   14.1180   -2.5570   16.6194 C   0  0  0  0  0  0  0  0  0  0  0  0
   13.4504   -3.7700   17.1925 C   0  0  0  0  0  0  0  0  0  0  0  0
   14.3571   -4.1789   18.2710 N   0  0  0  0  0  0  0  0  0  0  0  0
   14.9297   -2.9538   18.8566 C   0  0  0  0  0  0  0  0  0  0  0  0
   16.7382    0.7393   15.5241 H   0  0  0  0  0  0  0  0  0  0  0  0
   15.8154    0.8420   14.0245 H   0  0  0  0  0  0  0  0  0  0  0  0
   17.5534    0.5431   13.9816 H   0  0  0  0  0  0  0  0  0  0  0  0
   16.3754   -1.4774   13.4418 H   0  0  0  0  0  0  0  0  0  0  0  0
   15.3572   -1.3666   14.8352 H   0  0  0  0  0  0  0  0  0  0  0  0
   18.4118   -1.5970   15.0050 H   0  0  0  0  0  0  0  0  0  0  0  0
   16.4365   -3.9112   14.7457 H   0  0  0  0  0  0  0  0  0  0  0  0
   17.7290   -3.4451   13.6191 H   0  0  0  0  0  0  0  0  0  0  0  0
   18.2882   -5.1746   14.9631 H   0  0  0  0  0  0  0  0  0  0  0  0
   16.8108   -3.0234   17.0755 H   0  0  0  0  0  0  0  0  0  0  0  0
   18.3973   -2.3923   17.1029 H   0  0  0  0  0  0  0  0  0  0  0  0
   17.5737   -0.1720   17.2762 H   0  0  0  0  0  0  0  0  0  0  0  0
   15.2677   -0.1386   16.7647 H   0  0  0  0  0  0  0  0  0  0  0  0
   14.5354    0.8090   18.8757 H   0  0  0  0  0  0  0  0  0  0  0  0
   16.2080    1.2434   18.5707 H   0  0  0  0  0  0  0  0  0  0  0  0
   15.8223   -0.0299   19.7467 H   0  0  0  0  0  0  0  0  0  0  0  0
   13.8116   -1.3418   18.3422 H   0  0  0  0  0  0  0  0  0  0  0  0
   13.4418   -1.9587   16.0051 H   0  0  0  0  0  0  0  0  0  0  0  0
   14.9236   -2.9181   15.9882 H   0  0  0  0  0  0  0  0  0  0  0  0
   12.4674   -3.5324   17.5923 H   0  0  0  0  0  0  0  0  0  0  0  0
   13.3180   -4.5583   16.4488 H   0  0  0  0  0  0  0  0  0  0  0  0
   15.1450   -4.6772   17.8549 H   0  0  0  0  0  0  0  0  0  0  0  0
   15.9936   -3.0934   19.0672 H   0  0  0  0  0  0  0  0  0  0  0  0
   14.4502   -2.7574   19.8226 H   0  0  0  0  0  0  0  0  0  0  0  0
  1  2  1  0
  2  3  1  0
  3  4  1  0
  4  5  1  0
  3  6  1  0
  6  7  1  0
  7  8  1  0
  8  9  1  0
  8 10  1  0
 10 11  1  0
 11 12  1  0
 12 13  1  0
 13 14  1  0
 14 10  1  0
  1 15  1  0
  1 16  1  0
  1 17  1  0
  2 18  1  0
  2 19  1  0
  3 20  1  0
  4 21  1  0
  4 22  1  0
  5 23  1  0
  6 24  1  0
  6 25  1  0
  7 26  1  0
  8 27  1  0
  9 28  1  0
  9 29  1  0
  9 30  1  0
 10 31  1  0
 11 32  1  0
 11 33  1  0
 12 34  1  0
 12 35  1  0
 13 36  1  0
 14 37  1  0
 14 38  1  0
M  END
>  <Energy>  (601) 
39.340771594364369

>  <compound_id>  (601) 
54713

>  <target_id>  (601) 
1

>  <reference_id>  (601) 
124

>  <inspiration_ids>  (601) 
[124, 76]

>  <energy_score>  (601) 
-11.803432539270311

>  <distance_score>  (601) 
2.4401682924972463

>  <path>  (601) 
/opt/xchem-fragalysis-2/maxwin/BulkDock/SCRATCH/511024/C54713-P124/C54713-P124.minimised.mol

>  <scratch_subdir>  (601) 
/opt/xchem-fragalysis-2/maxwin/BulkDock/SCRATCH/511024/C54713-P124

>  <fragmenstein_runtime>  (601) 
22.700459480285645

>  <fragmenstein_outcome>  (601) 
too moved

>  <fragmenstein_mode>  (601) 
expansion

>  <fragmenstein_error>  (601) 


$$$$
C54713-P76
     RDKit          3D

 38 38  0  0  0  0  0  0  0  0999 V2000
   16.6124    0.2594   14.7130 C   0  0  0  0  0  0  0  0  0  0  0  0
   16.4170   -1.2452   14.5873 C   0  0  0  0  0  0  0  0  0  0  0  0
   17.4836   -2.0895   15.3150 C   0  0  0  0  0  0  0  0  0  0  0  0
   17.5645   -3.4743   14.6542 C   0  0  0  0  0  0  0  0  0  0  0  0
   18.5248   -4.2927   15.3108 O   0  0  0  0  0  0  0  0  0  0  0  0
   17.3581   -2.3295   16.8276 C   0  0  0  0  0  0  0  0  0  0  0  0
   16.9317   -1.2466   17.6714 N   0  0  0  0  0  0  0  0  0  0  0  0
   15.5182   -0.9588   17.7085 C   0  0  0  0  0  0  0  0  0  0  0  0
   15.3823    0.0398   18.8748 C   0  0  0  0  0  0  0  0  0  0  0  0
   14.5264   -2.1443   17.7722 C   0  0  0  0  0  0  0  0  0  0  0  0
   14.0761   -2.8041   16.4792 C   0  0  0  0  0  0  0  0  0  0  0  0
   13.2041   -3.9336   16.9641 C   0  0  0  0  0  0  0  0  0  0  0  0
   13.6749   -4.2945   18.3078 N   0  0  0  0  0  0  0  0  0  0  0  0
   14.7106   -3.3229   18.7083 C   0  0  0  0  0  0  0  0  0  0  0  0
   16.7283    0.6171   15.7350 H   0  0  0  0  0  0  0  0  0  0  0  0
   15.7639    0.7857   14.2635 H   0  0  0  0  0  0  0  0  0  0  0  0
   17.5119    0.5642   14.1663 H   0  0  0  0  0  0  0  0  0  0  0  0
   16.4629   -1.4705   13.5130 H   0  0  0  0  0  0  0  0  0  0  0  0
   15.4061   -1.5004   14.8805 H   0  0  0  0  0  0  0  0  0  0  0  0
   18.4547   -1.5983   15.1573 H   0  0  0  0  0  0  0  0  0  0  0  0
   16.5990   -3.9815   14.7100 H   0  0  0  0  0  0  0  0  0  0  0  0
   17.8573   -3.3843   13.6032 H   0  0  0  0  0  0  0  0  0  0  0  0
   18.4187   -5.1901   14.9503 H   0  0  0  0  0  0  0  0  0  0  0  0
   16.7907   -3.2397   17.0196 H   0  0  0  0  0  0  0  0  0  0  0  0
   18.3637   -2.5904   17.1873 H   0  0  0  0  0  0  0  0  0  0  0  0
   17.4869   -0.4119   17.4917 H   0  0  0  0  0  0  0  0  0  0  0  0
   15.2253   -0.3819   16.8292 H   0  0  0  0  0  0  0  0  0  0  0  0
   14.3810    0.4613   18.9230 H   0  0  0  0  0  0  0  0  0  0  0  0
   16.0700    0.8871   18.7637 H   0  0  0  0  0  0  0  0  0  0  0  0
   15.5886   -0.4442   19.8362 H   0  0  0  0  0  0  0  0  0  0  0  0
   13.6671   -1.6595   18.1696 H   0  0  0  0  0  0  0  0  0  0  0  0
   13.5233   -2.1261   15.8228 H   0  0  0  0  0  0  0  0  0  0  0  0
   14.9094   -3.2387   15.9318 H   0  0  0  0  0  0  0  0  0  0  0  0
   12.1613   -3.6110   17.0000 H   0  0  0  0  0  0  0  0  0  0  0  0
   13.2531   -4.7996   16.3078 H   0  0  0  0  0  0  0  0  0  0  0  0
   12.8754   -4.2332   18.9480 H   0  0  0  0  0  0  0  0  0  0  0  0
   15.6872   -3.8028   18.6266 H   0  0  0  0  0  0  0  0  0  0  0  0
   14.5802   -3.0333   19.7567 H   0  0  0  0  0  0  0  0  0  0  0  0
  1  2  1  0
  2  3  1  0
  3  4  1  0
  4  5  1  0
  3  6  1  0
  6  7  1  0
  7  8  1  0
  8  9  1  0
  8 10  1  0
 10 11  1  0
 11 12  1  0
 12 13  1  0
 13 14  1  0
 14 10  1  0
  1 15  1  0
  1 16  1  0
  1 17  1  0
  2 18  1  0
  2 19  1  0
  3 20  1  0
  4 21  1  0
  4 22  1  0
  5 23  1  0
  6 24  1  0
  6 25  1  0
  7 26  1  0
  8 27  1  0
  9 28  1  0
  9 29  1  0
  9 30  1  0
 10 31  1  0
 11 32  1  0
 11 33  1  0
 12 34  1  0
 12 35  1  0
 13 36  1  0
 14 37  1  0
 14 38  1  0
M  END
>  <Energy>  (602) 
39.677766887182649

>  <compound_id>  (602) 
54713

>  <target_id>  (602) 
1

>  <reference_id>  (602) 
76

>  <inspiration_ids>  (602) 
[124, 76]

>  <energy_score>  (602) 
-11.466437246451264

>  <distance_score>  (602) 
2.382096301308249

>  <path>  (602) 
/opt/xchem-fragalysis-2/maxwin/BulkDock/SCRATCH/511024/C54713-P76/C54713-P76.minimised.mol

>  <scratch_subdir>  (602) 
/opt/xchem-fragalysis-2/maxwin/BulkDock/SCRATCH/511024/C54713-P76

>  <fragmenstein_runtime>  (602) 
21.867705583572388

>  <fragmenstein_outcome>  (602) 
too moved

>  <fragmenstein_mode>  (602) 
expansion

>  <fragmenstein_error>  (602) 


$$$$
C54714-P124
     RDKit          3D

 38 38  0  0  0  0  0  0  0  0999 V2000
   14.7744    4.3784   17.9275 C   0  0  0  0  0  0  0  0  0  0  0  0
   15.5334    3.5027   17.0836 N   0  0  0  0  0  0  0  0  0  0  0  0
   15.7051    1.9630   17.1266 C   0  0  0  0  0  0  0  0  0  0  0  0
   15.1945    1.1635   17.8074 O   0  0  0  0  0  0  0  0  0  0  0  0
   16.6941    1.5784   16.0296 C   0  0  0  0  0  0  0  0  0  0  0  0
   16.0398    1.2292   14.6809 C   0  0  0  0  0  0  0  0  0  0  0  0
   15.4743    2.4639   13.9817 C   0  0  0  0  0  0  0  0  0  0  0  0
   14.9717    0.2296   14.7348 N   0  0  0  0  0  0  0  0  0  0  0  0
   15.4152   -1.1469   15.0452 C   0  0  0  0  0  0  0  0  0  0  0  0
   15.9324   -1.8390   13.7831 C   0  0  0  0  0  0  0  0  0  0  0  0
   14.2402   -1.8970   15.7158 C   0  0  0  0  0  0  0  0  0  0  0  0
   12.9635   -1.9711   14.8824 C   0  0  0  0  0  0  0  0  0  0  0  0
   12.1116   -2.9922   15.6124 C   0  0  0  0  0  0  0  0  0  0  0  0
   13.0788   -3.7400   16.5221 C   0  0  0  0  0  0  0  0  0  0  0  0
   14.4234   -3.2904   16.1368 N   0  0  0  0  0  0  0  0  0  0  0  0
   14.0748    3.7911   18.5263 H   0  0  0  0  0  0  0  0  0  0  0  0
   14.2360    5.0904   17.2987 H   0  0  0  0  0  0  0  0  0  0  0  0
   15.4658    4.9122   18.5833 H   0  0  0  0  0  0  0  0  0  0  0  0
   16.1930    3.8986   16.4246 H   0  0  0  0  0  0  0  0  0  0  0  0
   17.4375    2.3732   15.8947 H   0  0  0  0  0  0  0  0  0  0  0  0
   17.2668    0.7224   16.4079 H   0  0  0  0  0  0  0  0  0  0  0  0
   16.8385    0.8585   14.0265 H   0  0  0  0  0  0  0  0  0  0  0  0
   14.6133    2.8810   14.5151 H   0  0  0  0  0  0  0  0  0  0  0  0
   16.2349    3.2477   13.8985 H   0  0  0  0  0  0  0  0  0  0  0  0
   15.1448    2.2190   12.9651 H   0  0  0  0  0  0  0  0  0  0  0  0
   14.2655    0.5313   15.4095 H   0  0  0  0  0  0  0  0  0  0  0  0
   16.2295   -1.1303   15.7790 H   0  0  0  0  0  0  0  0  0  0  0  0
   16.2147   -2.8748   13.9960 H   0  0  0  0  0  0  0  0  0  0  0  0
   15.1869   -1.8477   12.9815 H   0  0  0  0  0  0  0  0  0  0  0  0
   16.8256   -1.3386   13.3947 H   0  0  0  0  0  0  0  0  0  0  0  0
   14.0691   -1.3515   16.6434 H   0  0  0  0  0  0  0  0  0  0  0  0
   12.4514   -1.0101   14.7989 H   0  0  0  0  0  0  0  0  0  0  0  0
   13.1567   -2.3191   13.8625 H   0  0  0  0  0  0  0  0  0  0  0  0
   11.3391   -2.4905   16.1964 H   0  0  0  0  0  0  0  0  0  0  0  0
   11.5990   -3.6444   14.9020 H   0  0  0  0  0  0  0  0  0  0  0  0
   12.9713   -4.8200   16.4236 H   0  0  0  0  0  0  0  0  0  0  0  0
   12.8909   -3.4870   17.5694 H   0  0  0  0  0  0  0  0  0  0  0  0
   15.0626   -3.3440   16.9278 H   0  0  0  0  0  0  0  0  0  0  0  0
  1  2  1  0
  2  3  1  0
  3  4  2  0
  3  5  1  0
  5  6  1  0
  6  7  1  0
  6  8  1  0
  8  9  1  0
  9 10  1  0
  9 11  1  0
 11 12  1  0
 12 13  1  0
 13 14  1  0
 14 15  1  0
 15 11  1  0
  1 16  1  0
  1 17  1  0
  1 18  1  0
  2 19  1  0
  5 20  1  0
  5 21  1  0
  6 22  1  0
  7 23  1  0
  7 24  1  0
  7 25  1  0
  8 26  1  0
  9 27  1  0
 10 28  1  0
 10 29  1  0
 10 30  1  0
 11 31  1  0
 12 32  1  0
 12 33  1  0
 13 34  1  0
 13 35  1  0
 14 36  1  0
 14 37  1  0
 15 38  1  0
M  END
>  <Energy>  (603) 
29.136636434244885

>  <compound_id>  (603) 
54714

>  <target_id>  (603) 
1

>  <reference_id>  (603) 
124

>  <inspiration_ids>  (603) 
[124, 76]

>  <energy_score>  (603) 
-17.16332617245331

>  <distance_score>  (603) 
1.386701013344722

>  <path>  (603) 
/opt/xchem-fragalysis-2/maxwin/BulkDock/SCRATCH/511024/C54714-P124/C54714-P124.minimised.mol

>  <scratch_subdir>  (603) 
/opt/xchem-fragalysis-2/maxwin/BulkDock/SCRATCH/511024/C54714-P124

>  <fragmenstein_runtime>  (603) 
2.1131975650787354

>  <fragmenstein_outcome>  (603) 
too moved

>  <fragmenstein_mode>  (603) 
expansion

>  <fragmenstein_error>  (603) 


$$$$
C54714-P76
     RDKit          3D

 38 38  0  0  0  0  0  0  0  0999 V2000
   13.9900    3.9034   18.3668 C   0  0  0  0  0  0  0  0  0  0  0  0
   14.9200    3.2839   17.4691 N   0  0  0  0  0  0  0  0  0  0  0  0
   15.4090    1.8138   17.3819 C   0  0  0  0  0  0  0  0  0  0  0  0
   15.1881    0.9007   18.0752 O   0  0  0  0  0  0  0  0  0  0  0  0
   16.3232    1.7175   16.1684 C   0  0  0  0  0  0  0  0  0  0  0  0
   15.5480    1.6287   14.8439 C   0  0  0  0  0  0  0  0  0  0  0  0
   16.5006    1.8072   13.6642 C   0  0  0  0  0  0  0  0  0  0  0  0
   14.6980    0.4533   14.6333 N   0  0  0  0  0  0  0  0  0  0  0  0
   15.2780   -0.8926   14.8497 C   0  0  0  0  0  0  0  0  0  0  0  0
   15.6758   -1.5156   13.5099 C   0  0  0  0  0  0  0  0  0  0  0  0
   14.2410   -1.7479   15.6215 C   0  0  0  0  0  0  0  0  0  0  0  0
   12.9257   -1.9780   14.8817 C   0  0  0  0  0  0  0  0  0  0  0  0
   12.2201   -3.0158   15.7301 C   0  0  0  0  0  0  0  0  0  0  0  0
   13.3190   -3.6616   16.5661 C   0  0  0  0  0  0  0  0  0  0  0  0
   14.5820   -3.1070   16.0564 N   0  0  0  0  0  0  0  0  0  0  0  0
   13.6590    3.1761   19.1112 H   0  0  0  0  0  0  0  0  0  0  0  0
   13.1365    4.2627   17.7878 H   0  0  0  0  0  0  0  0  0  0  0  0
   14.4853    4.7453   18.8551 H   0  0  0  0  0  0  0  0  0  0  0  0
   15.3712    3.8344   16.7476 H   0  0  0  0  0  0  0  0  0  0  0  0
   16.9788    2.5983   16.1628 H   0  0  0  0  0  0  0  0  0  0  0  0
   17.0007    0.8694   16.3132 H   0  0  0  0  0  0  0  0  0  0  0  0
   14.8644    2.4869   14.8019 H   0  0  0  0  0  0  0  0  0  0  0  0
   16.9701    2.7969   13.6980 H   0  0  0  0  0  0  0  0  0  0  0  0
   17.3039    1.0636   13.6744 H   0  0  0  0  0  0  0  0  0  0  0  0
   15.9712    1.7327   12.7077 H   0  0  0  0  0  0  0  0  0  0  0  0
   13.8440    0.5670   15.1826 H   0  0  0  0  0  0  0  0  0  0  0  0
   16.1741   -0.8484   15.4752 H   0  0  0  0  0  0  0  0  0  0  0  0
   16.0054   -2.5507   13.6441 H   0  0  0  0  0  0  0  0  0  0  0  0
   14.8498   -1.5137   12.7911 H   0  0  0  0  0  0  0  0  0  0  0  0
   16.5065   -0.9731   13.0497 H   0  0  0  0  0  0  0  0  0  0  0  0
   14.0831   -1.2024   16.5503 H   0  0  0  0  0  0  0  0  0  0  0  0
   12.3238   -1.0753   14.7728 H   0  0  0  0  0  0  0  0  0  0  0  0
   13.0815   -2.3755   13.8738 H   0  0  0  0  0  0  0  0  0  0  0  0
   11.4903   -2.5248   16.3697 H   0  0  0  0  0  0  0  0  0  0  0  0
   11.6696   -3.7226   15.1082 H   0  0  0  0  0  0  0  0  0  0  0  0
   13.3048   -4.7495   16.4903 H   0  0  0  0  0  0  0  0  0  0  0  0
   13.1948   -3.4028   17.6228 H   0  0  0  0  0  0  0  0  0  0  0  0
   15.2891   -3.0830   16.7897 H   0  0  0  0  0  0  0  0  0  0  0  0
  1  2  1  0
  2  3  1  0
  3  4  2  0
  3  5  1  0
  5  6  1  0
  6  7  1  0
  6  8  1  0
  8  9  1  0
  9 10  1  0
  9 11  1  0
 11 12  1  0
 12 13  1  0
 13 14  1  0
 14 15  1  0
 15 11  1  0
  1 16  1  0
  1 17  1  0
  1 18  1  0
  2 19  1  0
  5 20  1  0
  5 21  1  0
  6 22  1  0
  7 23  1  0
  7 24  1  0
  7 25  1  0
  8 26  1  0
  9 27  1  0
 10 28  1  0
 10 29  1  0
 10 30  1  0
 11 31  1  0
 12 32  1  0
 12 33  1  0
 13 34  1  0
 13 35  1  0
 14 36  1  0
 14 37  1  0
 15 38  1  0
M  END
>  <Energy>  (604) 
33.755646768596804

>  <compound_id>  (604) 
54714

>  <target_id>  (604) 
1

>  <reference_id>  (604) 
76

>  <inspiration_ids>  (604) 
[124, 76]

>  <energy_score>  (604) 
-12.544315838102023

>  <distance_score>  (604) 
1.3463916913313754

>  <path>  (604) 
/opt/xchem-fragalysis-2/maxwin/BulkDock/SCRATCH/511024/C54714-P76/C54714-P76.minimised.mol

>  <scratch_subdir>  (604) 
/opt/xchem-fragalysis-2/maxwin/BulkDock/SCRATCH/511024/C54714-P76

>  <fragmenstein_runtime>  (604) 
2.3541712760925293

>  <fragmenstein_outcome>  (604) 
too moved

>  <fragmenstein_mode>  (604) 
expansion

>  <fragmenstein_error>  (604) 


$$$$
C54716-P124
     RDKit          3D

 32 32  0  0  0  0  0  0  0  0999 V2000
   16.2696   -2.4418   17.4094 O   0  0  0  0  0  0  0  0  0  0  0  0
   17.4943   -1.9315   16.8934 C   0  0  0  0  0  0  0  0  0  0  0  0
   17.2926   -0.5904   16.1721 C   0  0  0  0  0  0  0  0  0  0  0  0
   16.3133    0.3933   16.8217 C   0  0  0  0  0  0  0  0  0  0  0  0
   14.9227   -0.0448   16.8018 N   0  0  0  0  0  0  0  0  0  0  0  0
   14.3227    0.0637   15.4618 C   0  0  0  0  0  0  0  0  0  0  0  0
   13.3910   -1.1103   14.9882 C   0  0  0  0  0  0  0  0  0  0  0  0
   13.7595   -1.4439   13.5540 C   0  0  0  0  0  0  0  0  0  0  0  0
   15.0445   -2.2257   13.7547 C   0  0  0  0  0  0  0  0  0  0  0  0
   14.9631   -2.7792   15.1315 N   0  0  0  0  0  0  0  0  0  0  0  0
   13.6212   -2.4722   15.6266 C   0  0  0  0  0  0  0  0  0  0  0  0
   18.2218   -2.9429   15.9839 C   0  0  0  0  0  0  0  0  0  0  0  0
   17.6398   -3.0505   14.7658 F   0  0  0  0  0  0  0  0  0  0  0  0
   18.1943   -4.1832   16.5314 F   0  0  0  0  0  0  0  0  0  0  0  0
   15.7881   -2.7367   16.6051 H   0  0  0  0  0  0  0  0  0  0  0  0
   18.1219   -1.7659   17.7765 H   0  0  0  0  0  0  0  0  0  0  0  0
   18.2742   -0.0995   16.1189 H   0  0  0  0  0  0  0  0  0  0  0  0
   17.0187   -0.7466   15.1310 H   0  0  0  0  0  0  0  0  0  0  0  0
   16.4048    1.3790   16.3490 H   0  0  0  0  0  0  0  0  0  0  0  0
   16.6075    0.5360   17.8683 H   0  0  0  0  0  0  0  0  0  0  0  0
   14.9368   -1.0168   17.1182 H   0  0  0  0  0  0  0  0  0  0  0  0
   15.0950    0.2592   14.7085 H   0  0  0  0  0  0  0  0  0  0  0  0
   13.7323    0.9869   15.4412 H   0  0  0  0  0  0  0  0  0  0  0  0
   12.3394   -0.8364   15.0345 H   0  0  0  0  0  0  0  0  0  0  0  0
   12.9885   -2.0803   13.1073 H   0  0  0  0  0  0  0  0  0  0  0  0
   13.8897   -0.5660   12.9138 H   0  0  0  0  0  0  0  0  0  0  0  0
   15.1791   -2.9704   12.9696 H   0  0  0  0  0  0  0  0  0  0  0  0
   15.9116   -1.5702   13.6628 H   0  0  0  0  0  0  0  0  0  0  0  0
   15.1745   -3.7799   15.1226 H   0  0  0  0  0  0  0  0  0  0  0  0
   12.8837   -3.1997   15.2684 H   0  0  0  0  0  0  0  0  0  0  0  0
   13.5678   -2.4798   16.7171 H   0  0  0  0  0  0  0  0  0  0  0  0
   19.2648   -2.6513   15.8296 H   0  0  0  0  0  0  0  0  0  0  0  0
  1  2  1  0
  2  3  1  0
  3  4  1  0
  4  5  1  0
  5  6  1  0
  6  7  1  0
  7  8  1  0
  8  9  1  0
  9 10  1  0
 10 11  1  0
  2 12  1  0
 12 13  1  0
 12 14  1  0
 11  7  1  0
  1 15  1  0
  2 16  1  0
  3 17  1  0
  3 18  1  0
  4 19  1  0
  4 20  1  0
  5 21  1  0
  6 22  1  0
  6 23  1  0
  7 24  1  0
  8 25  1  0
  8 26  1  0
  9 27  1  0
  9 28  1  0
 10 29  1  0
 11 30  1  0
 11 31  1  0
 12 32  1  0
M  END
>  <Energy>  (605) 
61.426719104537412

>  <compound_id>  (605) 
54716

>  <target_id>  (605) 
1

>  <reference_id>  (605) 
124

>  <inspiration_ids>  (605) 
[124, 76]

>  <energy_score>  (605) 
-16.491786160153026

>  <distance_score>  (605) 
1.9618931894647993

>  <path>  (605) 
/opt/xchem-fragalysis-2/maxwin/BulkDock/SCRATCH/511024/C54716-P124/C54716-P124.minimised.mol

>  <scratch_subdir>  (605) 
/opt/xchem-fragalysis-2/maxwin/BulkDock/SCRATCH/511024/C54716-P124

>  <fragmenstein_runtime>  (605) 
7.826767444610596

>  <fragmenstein_outcome>  (605) 
too moved

>  <fragmenstein_mode>  (605) 
expansion

>  <fragmenstein_error>  (605) 


$$$$
C54716-P76
     RDKit          3D

 32 32  0  0  0  0  0  0  0  0999 V2000
   17.6975   -1.8070   17.9314 O   0  0  0  0  0  0  0  0  0  0  0  0
   17.2177   -1.9889   16.5915 C   0  0  0  0  0  0  0  0  0  0  0  0
   17.2402   -0.6349   15.8770 C   0  0  0  0  0  0  0  0  0  0  0  0
   16.2499    0.3872   16.4273 C   0  0  0  0  0  0  0  0  0  0  0  0
   14.8362    0.0252   16.3403 N   0  0  0  0  0  0  0  0  0  0  0  0
   14.2377    0.2068   14.9977 C   0  0  0  0  0  0  0  0  0  0  0  0
   13.6319   -1.0350   14.2917 C   0  0  0  0  0  0  0  0  0  0  0  0
   14.5703   -2.1876   14.4682 C   0  0  0  0  0  0  0  0  0  0  0  0
   14.0357   -2.8741   15.7280 C   0  0  0  0  0  0  0  0  0  0  0  0
   12.5885   -2.8204   15.6138 N   0  0  0  0  0  0  0  0  0  0  0  0
   12.3203   -1.7361   14.6719 C   0  0  0  0  0  0  0  0  0  0  0  0
   18.0491   -3.0225   15.8314 C   0  0  0  0  0  0  0  0  0  0  0  0
   17.6242   -3.1404   14.5513 F   0  0  0  0  0  0  0  0  0  0  0  0
   17.8745   -4.2398   16.4131 F   0  0  0  0  0  0  0  0  0  0  0  0
   17.6237   -2.6741   18.3734 H   0  0  0  0  0  0  0  0  0  0  0  0
   16.2190   -2.3779   16.7034 H   0  0  0  0  0  0  0  0  0  0  0  0
   18.2416   -0.2029   16.0174 H   0  0  0  0  0  0  0  0  0  0  0  0
   17.1266   -0.7239   14.7931 H   0  0  0  0  0  0  0  0  0  0  0  0
   16.4211    1.3614   15.9519 H   0  0  0  0  0  0  0  0  0  0  0  0
   16.4808    0.5406   17.4892 H   0  0  0  0  0  0  0  0  0  0  0  0
   14.3724    0.6882   16.9565 H   0  0  0  0  0  0  0  0  0  0  0  0
   15.0051    0.6068   14.3197 H   0  0  0  0  0  0  0  0  0  0  0  0
   13.4918    1.0021   15.0451 H   0  0  0  0  0  0  0  0  0  0  0  0
   13.5643   -0.7643   13.2287 H   0  0  0  0  0  0  0  0  0  0  0  0
   15.6095   -1.9191   14.5364 H   0  0  0  0  0  0  0  0  0  0  0  0
   14.5257   -2.7362   13.5288 H   0  0  0  0  0  0  0  0  0  0  0  0
   14.4106   -3.8902   15.8716 H   0  0  0  0  0  0  0  0  0  0  0  0
   14.2819   -2.3341   16.6428 H   0  0  0  0  0  0  0  0  0  0  0  0
   12.1735   -2.6437   16.5234 H   0  0  0  0  0  0  0  0  0  0  0  0
   11.9293   -2.2192   13.7657 H   0  0  0  0  0  0  0  0  0  0  0  0
   11.5204   -1.0900   14.9924 H   0  0  0  0  0  0  0  0  0  0  0  0
   19.1182   -2.7915   15.8423 H   0  0  0  0  0  0  0  0  0  0  0  0
  1  2  1  0
  2  3  1  0
  3  4  1  0
  4  5  1  0
  5  6  1  0
  6  7  1  0
  7  8  1  0
  8  9  1  0
  9 10  1  0
 10 11  1  0
  2 12  1  0
 12 13  1  0
 12 14  1  0
 11  7  1  0
  1 15  1  0
  2 16  1  0
  3 17  1  0
  3 18  1  0
  4 19  1  0
  4 20  1  0
  5 21  1  0
  6 22  1  0
  6 23  1  0
  7 24  1  0
  8 25  1  0
  8 26  1  0
  9 27  1  0
  9 28  1  0
 10 29  1  0
 11 30  1  0
 11 31  1  0
 12 32  1  0
M  END
>  <Energy>  (606) 
68.82708393014579

>  <compound_id>  (606) 
54716

>  <target_id>  (606) 
1

>  <reference_id>  (606) 
76

>  <inspiration_ids>  (606) 
[124, 76]

>  <energy_score>  (606) 
-9.091421334544975

>  <distance_score>  (606) 
2.154256002484413

>  <path>  (606) 
/opt/xchem-fragalysis-2/maxwin/BulkDock/SCRATCH/511024/C54716-P76/C54716-P76.minimised.mol

>  <scratch_subdir>  (606) 
/opt/xchem-fragalysis-2/maxwin/BulkDock/SCRATCH/511024/C54716-P76

>  <fragmenstein_runtime>  (606) 
7.564946413040161

>  <fragmenstein_outcome>  (606) 
too moved

>  <fragmenstein_mode>  (606) 
expansion

>  <fragmenstein_error>  (606) 


$$$$
C54718-P124
     RDKit          3D

 35 35  0  0  0  0  0  0  0  0999 V2000
   18.1377   -2.9778   14.2551 C   0  0  0  0  0  0  0  0  0  0  0  0
   17.1831   -3.3270   15.4005 C   0  0  0  0  0  0  0  0  0  0  0  0
   17.9272   -4.1936   16.4391 C   0  0  0  0  0  0  0  0  0  0  0  0
   17.0119   -4.8733   17.2977 O   0  0  0  0  0  0  0  0  0  0  0  0
   16.5696   -2.0582   15.8418 N   0  0  0  0  0  0  0  0  0  0  0  0
   16.6627   -1.6374   17.2228 C   0  0  0  0  0  0  0  0  0  0  0  0
   15.3548   -1.7067   15.0899 C   0  0  0  0  0  0  0  0  0  0  0  0
   15.3451   -0.1938   14.7753 C   0  0  0  0  0  0  0  0  0  0  0  0
   14.0400   -2.0938   15.7752 C   0  0  0  0  0  0  0  0  0  0  0  0
   12.8465   -2.0214   14.8258 C   0  0  0  0  0  0  0  0  0  0  0  0
   11.7911   -2.8789   15.4856 C   0  0  0  0  0  0  0  0  0  0  0  0
   12.5049   -3.8512   16.2944 N   0  0  0  0  0  0  0  0  0  0  0  0
   13.9019   -3.4588   16.4326 C   0  0  0  0  0  0  0  0  0  0  0  0
   18.9626   -2.3464   14.6046 H   0  0  0  0  0  0  0  0  0  0  0  0
   18.5723   -3.8855   13.8218 H   0  0  0  0  0  0  0  0  0  0  0  0
   17.6282   -2.4491   13.4421 H   0  0  0  0  0  0  0  0  0  0  0  0
   16.4050   -3.9768   14.9864 H   0  0  0  0  0  0  0  0  0  0  0  0
   18.5034   -4.9739   15.9297 H   0  0  0  0  0  0  0  0  0  0  0  0
   18.6361   -3.6199   17.0438 H   0  0  0  0  0  0  0  0  0  0  0  0
   16.5663   -4.1979   17.8315 H   0  0  0  0  0  0  0  0  0  0  0  0
   17.6963   -1.6801   17.5799 H   0  0  0  0  0  0  0  0  0  0  0  0
   16.3632   -0.5907   17.3398 H   0  0  0  0  0  0  0  0  0  0  0  0
   16.0396   -2.2278   17.8967 H   0  0  0  0  0  0  0  0  0  0  0  0
   15.3908   -2.2007   14.1099 H   0  0  0  0  0  0  0  0  0  0  0  0
   16.2955    0.1109   14.3223 H   0  0  0  0  0  0  0  0  0  0  0  0
   14.5559    0.0517   14.0571 H   0  0  0  0  0  0  0  0  0  0  0  0
   15.1848    0.4162   15.6702 H   0  0  0  0  0  0  0  0  0  0  0  0
   13.9321   -1.3761   16.5803 H   0  0  0  0  0  0  0  0  0  0  0  0
   13.0957   -2.4263   13.8393 H   0  0  0  0  0  0  0  0  0  0  0  0
   12.4978   -0.9966   14.6738 H   0  0  0  0  0  0  0  0  0  0  0  0
   11.1446   -3.3654   14.7498 H   0  0  0  0  0  0  0  0  0  0  0  0
   11.1565   -2.2587   16.1167 H   0  0  0  0  0  0  0  0  0  0  0  0
   12.0534   -4.0531   17.1846 H   0  0  0  0  0  0  0  0  0  0  0  0
   14.5300   -4.2196   15.9745 H   0  0  0  0  0  0  0  0  0  0  0  0
   14.1677   -3.4162   17.4936 H   0  0  0  0  0  0  0  0  0  0  0  0
  1  2  1  0
  2  3  1  0
  3  4  1  0
  2  5  1  0
  5  6  1  0
  5  7  1  0
  7  8  1  0
  7  9  1  0
  9 10  1  0
 10 11  1  0
 11 12  1  0
 12 13  1  0
 13  9  1  0
  1 14  1  0
  1 15  1  0
  1 16  1  0
  2 17  1  0
  3 18  1  0
  3 19  1  0
  4 20  1  0
  6 21  1  0
  6 22  1  0
  6 23  1  0
  7 24  1  0
  8 25  1  0
  8 26  1  0
  8 27  1  0
  9 28  1  0
 10 29  1  0
 10 30  1  0
 11 31  1  0
 11 32  1  0
 12 33  1  0
 13 34  1  0
 13 35  1  0
M  END
>  <Energy>  (607) 
50.788563204463195

>  <compound_id>  (607) 
54718

>  <target_id>  (607) 
1

>  <reference_id>  (607) 
124

>  <inspiration_ids>  (607) 
[124, 76]

>  <energy_score>  (607) 
-67.00602103692121

>  <distance_score>  (607) 
1.0785487584502051

>  <path>  (607) 
/opt/xchem-fragalysis-2/maxwin/BulkDock/SCRATCH/511024/C54718-P124/C54718-P124.minimised.mol

>  <scratch_subdir>  (607) 
/opt/xchem-fragalysis-2/maxwin/BulkDock/SCRATCH/511024/C54718-P124

>  <fragmenstein_runtime>  (607) 
10.069356918334961

>  <fragmenstein_outcome>  (607) 
too moved

>  <fragmenstein_mode>  (607) 
expansion

>  <fragmenstein_error>  (607) 


$$$$
C54718-P76
     RDKit          3D

 35 35  0  0  0  0  0  0  0  0999 V2000
   18.0438   -3.0225   14.1535 C   0  0  0  0  0  0  0  0  0  0  0  0
   17.2559   -3.2692   15.4466 C   0  0  0  0  0  0  0  0  0  0  0  0
   18.2108   -3.9271   16.4728 C   0  0  0  0  0  0  0  0  0  0  0  0
   17.5121   -4.4340   17.6093 O   0  0  0  0  0  0  0  0  0  0  0  0
   16.6154   -1.9920   15.8319 N   0  0  0  0  0  0  0  0  0  0  0  0
   16.5996   -1.6452   17.2440 C   0  0  0  0  0  0  0  0  0  0  0  0
   15.3906   -1.7021   15.0633 C   0  0  0  0  0  0  0  0  0  0  0  0
   15.3987   -0.2071   14.6693 C   0  0  0  0  0  0  0  0  0  0  0  0
   14.0586   -2.0324   15.7484 C   0  0  0  0  0  0  0  0  0  0  0  0
   12.8779   -1.9991   14.7779 C   0  0  0  0  0  0  0  0  0  0  0  0
   11.8193   -2.8379   15.4540 C   0  0  0  0  0  0  0  0  0  0  0  0
   12.5428   -3.8261   16.2335 N   0  0  0  0  0  0  0  0  0  0  0  0
   13.8937   -3.3482   16.5016 C   0  0  0  0  0  0  0  0  0  0  0  0
   18.8423   -2.2884   14.3118 H   0  0  0  0  0  0  0  0  0  0  0  0
   18.5110   -3.9497   13.8027 H   0  0  0  0  0  0  0  0  0  0  0  0
   17.4122   -2.6587   13.3372 H   0  0  0  0  0  0  0  0  0  0  0  0
   16.4802   -4.0126   15.2364 H   0  0  0  0  0  0  0  0  0  0  0  0
   18.7356   -4.7749   16.0180 H   0  0  0  0  0  0  0  0  0  0  0  0
   18.9758   -3.2242   16.8190 H   0  0  0  0  0  0  0  0  0  0  0  0
   16.8467   -5.0603   17.2790 H   0  0  0  0  0  0  0  0  0  0  0  0
   17.6186   -1.5629   17.6359 H   0  0  0  0  0  0  0  0  0  0  0  0
   16.1507   -0.6593   17.4057 H   0  0  0  0  0  0  0  0  0  0  0  0
   16.0532   -2.3635   17.8583 H   0  0  0  0  0  0  0  0  0  0  0  0
   15.4224   -2.2521   14.1150 H   0  0  0  0  0  0  0  0  0  0  0  0
   16.3419    0.0554   14.1762 H   0  0  0  0  0  0  0  0  0  0  0  0
   14.5955    0.0190   13.9605 H   0  0  0  0  0  0  0  0  0  0  0  0
   15.2779    0.4501   15.5370 H   0  0  0  0  0  0  0  0  0  0  0  0
   13.9417   -1.2507   16.4895 H   0  0  0  0  0  0  0  0  0  0  0  0
   13.1404   -2.4302   13.8065 H   0  0  0  0  0  0  0  0  0  0  0  0
   12.5265   -0.9817   14.5886 H   0  0  0  0  0  0  0  0  0  0  0  0
   11.1475   -3.3082   14.7309 H   0  0  0  0  0  0  0  0  0  0  0  0
   11.2148   -2.2112   16.1063 H   0  0  0  0  0  0  0  0  0  0  0  0
   12.0512   -4.1219   17.0751 H   0  0  0  0  0  0  0  0  0  0  0  0
   14.6054   -4.1166   16.2018 H   0  0  0  0  0  0  0  0  0  0  0  0
   14.0121   -3.1929   17.5791 H   0  0  0  0  0  0  0  0  0  0  0  0
  1  2  1  0
  2  3  1  0
  3  4  1  0
  2  5  1  0
  5  6  1  0
  5  7  1  0
  7  8  1  0
  7  9  1  0
  9 10  1  0
 10 11  1  0
 11 12  1  0
 12 13  1  0
 13  9  1  0
  1 14  1  0
  1 15  1  0
  1 16  1  0
  2 17  1  0
  3 18  1  0
  3 19  1  0
  4 20  1  0
  6 21  1  0
  6 22  1  0
  6 23  1  0
  7 24  1  0
  8 25  1  0
  8 26  1  0
  8 27  1  0
  9 28  1  0
 10 29  1  0
 10 30  1  0
 11 31  1  0
 11 32  1  0
 12 33  1  0
 13 34  1  0
 13 35  1  0
M  END
>  <Energy>  (608) 
48.863278900134212

>  <compound_id>  (608) 
54718

>  <target_id>  (608) 
1

>  <reference_id>  (608) 
76

>  <inspiration_ids>  (608) 
[124, 76]

>  <energy_score>  (608) 
-68.9313053412507

>  <distance_score>  (608) 
1.1008067931758927

>  <path>  (608) 
/opt/xchem-fragalysis-2/maxwin/BulkDock/SCRATCH/511024/C54718-P76/C54718-P76.minimised.mol

>  <scratch_subdir>  (608) 
/opt/xchem-fragalysis-2/maxwin/BulkDock/SCRATCH/511024/C54718-P76

>  <fragmenstein_runtime>  (608) 
11.63905930519104

>  <fragmenstein_outcome>  (608) 
too moved

>  <fragmenstein_mode>  (608) 
expansion

>  <fragmenstein_error>  (608) 


$$$$
C54719-P124
     RDKit          3D

 40 40  0  0  0  0  0  0  0  0999 V2000
   15.2569   -0.3114   20.0067 C   0  0  0  0  0  0  0  0  0  0  0  0
   15.7984    0.5110   19.3198 C   0  0  0  0  0  0  0  0  0  0  0  0
   16.4473    1.5126   18.4772 C   0  0  0  0  0  0  0  0  0  0  0  0
   15.8558    1.4367   17.1822 N   0  0  0  0  0  0  0  0  0  0  0  0
   16.4889    1.5891   15.7769 C   0  0  0  0  0  0  0  0  0  0  0  0
   17.5758    1.8762   15.4647 O   0  0  0  0  0  0  0  0  0  0  0  0
   15.3638    1.2136   14.7663 C   0  0  0  0  0  0  0  0  0  0  0  0
   15.3540    2.2616   13.6558 C   0  0  0  0  0  0  0  0  0  0  0  0
   15.6099   -0.0915   14.1480 N   0  0  0  0  0  0  0  0  0  0  0  0
   15.8488   -1.2483   15.0098 C   0  0  0  0  0  0  0  0  0  0  0  0
   14.7904   -1.7216   16.0516 C   0  0  0  0  0  0  0  0  0  0  0  0
   15.3924   -2.8915   16.8554 C   0  0  0  0  0  0  0  0  0  0  0  0
   13.4246   -1.9717   15.6053 N   0  0  0  0  0  0  0  0  0  0  0  0
   12.7334   -3.1502   16.0979 C   0  0  0  0  0  0  0  0  0  0  0  0
   11.3918   -3.0235   15.4390 C   0  0  0  0  0  0  0  0  0  0  0  0
   11.6452   -2.2781   14.1529 C   0  0  0  0  0  0  0  0  0  0  0  0
   13.0499   -1.7386   14.2292 C   0  0  0  0  0  0  0  0  0  0  0  0
   14.7832   -1.0363   20.6308 H   0  0  0  0  0  0  0  0  0  0  0  0
   16.2829    2.5233   18.8611 H   0  0  0  0  0  0  0  0  0  0  0  0
   17.5237    1.3438   18.3866 H   0  0  0  0  0  0  0  0  0  0  0  0
   14.8663    1.2570   17.0888 H   0  0  0  0  0  0  0  0  0  0  0  0
   14.3757    1.2169   15.2362 H   0  0  0  0  0  0  0  0  0  0  0  0
   16.2998    2.2808   13.1015 H   0  0  0  0  0  0  0  0  0  0  0  0
   15.2003    3.2628   14.0739 H   0  0  0  0  0  0  0  0  0  0  0  0
   14.5463    2.0708   12.9401 H   0  0  0  0  0  0  0  0  0  0  0  0
   14.9172   -0.2899   13.4354 H   0  0  0  0  0  0  0  0  0  0  0  0
   16.0513   -2.0938   14.3382 H   0  0  0  0  0  0  0  0  0  0  0  0
   16.8002   -1.0829   15.5316 H   0  0  0  0  0  0  0  0  0  0  0  0
   14.7021   -0.9074   16.7745 H   0  0  0  0  0  0  0  0  0  0  0  0
   15.5022   -3.7896   16.2381 H   0  0  0  0  0  0  0  0  0  0  0  0
   14.7950   -3.1362   17.7396 H   0  0  0  0  0  0  0  0  0  0  0  0
   16.3895   -2.6272   17.2267 H   0  0  0  0  0  0  0  0  0  0  0  0
   13.2241   -4.0787   15.8067 H   0  0  0  0  0  0  0  0  0  0  0  0
   12.6232   -3.1566   17.1845 H   0  0  0  0  0  0  0  0  0  0  0  0
   10.9124   -3.9831   15.2639 H   0  0  0  0  0  0  0  0  0  0  0  0
   10.7213   -2.4152   16.0438 H   0  0  0  0  0  0  0  0  0  0  0  0
   10.9516   -1.4386   14.0845 H   0  0  0  0  0  0  0  0  0  0  0  0
   11.5188   -2.9430   13.2995 H   0  0  0  0  0  0  0  0  0  0  0  0
   13.6936   -2.2557   13.5123 H   0  0  0  0  0  0  0  0  0  0  0  0
   13.0233   -0.6732   13.9859 H   0  0  0  0  0  0  0  0  0  0  0  0
  1  2  3  0
  2  3  1  0
  3  4  1  0
  4  5  1  0
  5  6  2  0
  5  7  1  0
  7  8  1  0
  7  9  1  0
  9 10  1  0
 10 11  1  0
 11 12  1  0
 11 13  1  0
 13 14  1  0
 14 15  1  0
 15 16  1  0
 16 17  1  0
 17 13  1  0
  1 18  1  0
  3 19  1  0
  3 20  1  0
  4 21  1  0
  7 22  1  0
  8 23  1  0
  8 24  1  0
  8 25  1  0
  9 26  1  0
 10 27  1  0
 10 28  1  0
 11 29  1  0
 12 30  1  0
 12 31  1  0
 12 32  1  0
 14 33  1  0
 14 34  1  0
 15 35  1  0
 15 36  1  0
 16 37  1  0
 16 38  1  0
 17 39  1  0
 17 40  1  0
M  END
>  <Energy>  (609) 
71.530014439229234

>  <compound_id>  (609) 
54719

>  <target_id>  (609) 
1

>  <reference_id>  (609) 
124

>  <inspiration_ids>  (609) 
[124, 76]

>  <energy_score>  (609) 
-1.3043074053485668

>  <distance_score>  (609) 
1.5216838252521476

>  <path>  (609) 
/opt/xchem-fragalysis-2/maxwin/BulkDock/SCRATCH/511024/C54719-P124/C54719-P124.minimised.mol

>  <scratch_subdir>  (609) 
/opt/xchem-fragalysis-2/maxwin/BulkDock/SCRATCH/511024/C54719-P124

>  <fragmenstein_runtime>  (609) 
3.756316900253296

>  <fragmenstein_outcome>  (609) 
too moved

>  <fragmenstein_mode>  (609) 
expansion

>  <fragmenstein_error>  (609) 


$$$$
C54719-P76
     RDKit          3D

 40 40  0  0  0  0  0  0  0  0999 V2000
   15.4114    0.7221   19.8323 C   0  0  0  0  0  0  0  0  0  0  0  0
   15.3925    1.6690   19.0918 C   0  0  0  0  0  0  0  0  0  0  0  0
   15.3467    2.8121   18.1647 C   0  0  0  0  0  0  0  0  0  0  0  0
   15.1576    2.2949   16.8484 N   0  0  0  0  0  0  0  0  0  0  0  0
   15.3505    2.9643   15.4705 C   0  0  0  0  0  0  0  0  0  0  0  0
   15.7673    4.0173   15.1939 O   0  0  0  0  0  0  0  0  0  0  0  0
   14.9533    1.8536   14.4241 C   0  0  0  0  0  0  0  0  0  0  0  0
   16.2526    1.3101   13.8428 C   0  0  0  0  0  0  0  0  0  0  0  0
   14.0704    0.8585   15.0955 N   0  0  0  0  0  0  0  0  0  0  0  0
   14.0785   -0.5297   14.6341 C   0  0  0  0  0  0  0  0  0  0  0  0
   14.9798   -1.5184   15.4374 C   0  0  0  0  0  0  0  0  0  0  0  0
   15.4171   -1.0368   16.8215 C   0  0  0  0  0  0  0  0  0  0  0  0
   14.4379   -2.8798   15.4849 N   0  0  0  0  0  0  0  0  0  0  0  0
   13.0855   -3.0643   16.0226 C   0  0  0  0  0  0  0  0  0  0  0  0
   13.2041   -4.0912   17.1311 C   0  0  0  0  0  0  0  0  0  0  0  0
   14.6617   -4.0393   17.5259 C   0  0  0  0  0  0  0  0  0  0  0  0
   15.3243   -3.8120   16.1854 C   0  0  0  0  0  0  0  0  0  0  0  0
   15.4300   -0.1144   20.4934 H   0  0  0  0  0  0  0  0  0  0  0  0
   16.2686    3.3996   18.1821 H   0  0  0  0  0  0  0  0  0  0  0  0
   14.5081    3.4771   18.3897 H   0  0  0  0  0  0  0  0  0  0  0  0
   14.6909    1.3997   16.7284 H   0  0  0  0  0  0  0  0  0  0  0  0
   14.3760    2.3436   13.6312 H   0  0  0  0  0  0  0  0  0  0  0  0
   16.8590    0.8098   14.6051 H   0  0  0  0  0  0  0  0  0  0  0  0
   16.8633    2.1246   13.4363 H   0  0  0  0  0  0  0  0  0  0  0  0
   16.0716    0.6066   13.0249 H   0  0  0  0  0  0  0  0  0  0  0  0
   13.1061    1.2157   15.0045 H   0  0  0  0  0  0  0  0  0  0  0  0
   14.2863   -0.6069   13.5599 H   0  0  0  0  0  0  0  0  0  0  0  0
   13.0371   -0.8618   14.7075 H   0  0  0  0  0  0  0  0  0  0  0  0
   15.9087   -1.5793   14.8518 H   0  0  0  0  0  0  0  0  0  0  0  0
   15.9929   -0.1153   16.7243 H   0  0  0  0  0  0  0  0  0  0  0  0
   16.1297   -1.7020   17.3159 H   0  0  0  0  0  0  0  0  0  0  0  0
   14.5838   -0.8794   17.5027 H   0  0  0  0  0  0  0  0  0  0  0  0
   12.6578   -2.1584   16.4263 H   0  0  0  0  0  0  0  0  0  0  0  0
   12.3930   -3.4011   15.2451 H   0  0  0  0  0  0  0  0  0  0  0  0
   12.5734   -3.8698   17.9852 H   0  0  0  0  0  0  0  0  0  0  0  0
   12.9277   -5.0734   16.7436 H   0  0  0  0  0  0  0  0  0  0  0  0
   14.8263   -3.2100   18.2208 H   0  0  0  0  0  0  0  0  0  0  0  0
   15.0241   -4.9355   18.0281 H   0  0  0  0  0  0  0  0  0  0  0  0
   16.3682   -3.4911   16.2678 H   0  0  0  0  0  0  0  0  0  0  0  0
   15.3746   -4.7673   15.6587 H   0  0  0  0  0  0  0  0  0  0  0  0
  1  2  3  0
  2  3  1  0
  3  4  1  0
  4  5  1  0
  5  6  2  0
  5  7  1  0
  7  8  1  0
  7  9  1  0
  9 10  1  0
 10 11  1  0
 11 12  1  0
 11 13  1  0
 13 14  1  0
 14 15  1  0
 15 16  1  0
 16 17  1  0
 17 13  1  0
  1 18  1  0
  3 19  1  0
  3 20  1  0
  4 21  1  0
  7 22  1  0
  8 23  1  0
  8 24  1  0
  8 25  1  0
  9 26  1  0
 10 27  1  0
 10 28  1  0
 11 29  1  0
 12 30  1  0
 12 31  1  0
 12 32  1  0
 14 33  1  0
 14 34  1  0
 15 35  1  0
 15 36  1  0
 16 37  1  0
 16 38  1  0
 17 39  1  0
 17 40  1  0
M  END
>  <Energy>  (610) 
69.840082677075117

>  <compound_id>  (610) 
54719

>  <target_id>  (610) 
1

>  <reference_id>  (610) 
76

>  <inspiration_ids>  (610) 
[124, 76]

>  <energy_score>  (610) 
-2.9942391675028546

>  <distance_score>  (610) 
1.870648495402952

>  <path>  (610) 
/opt/xchem-fragalysis-2/maxwin/BulkDock/SCRATCH/511024/C54719-P76/C54719-P76.minimised.mol

>  <scratch_subdir>  (610) 
/opt/xchem-fragalysis-2/maxwin/BulkDock/SCRATCH/511024/C54719-P76

>  <fragmenstein_runtime>  (610) 
2.9627482891082764

>  <fragmenstein_outcome>  (610) 
too moved

>  <fragmenstein_mode>  (610) 
expansion

>  <fragmenstein_error>  (610) 


$$$$
C54720-P124
     RDKit          3D

 38 38  0  0  0  0  0  0  0  0999 V2000
   17.7589   -2.8938   14.2055 C   0  0  0  0  0  0  0  0  0  0  0  0
   17.2737   -3.4293   15.5539 C   0  0  0  0  0  0  0  0  0  0  0  0
   18.2901   -4.4214   16.1140 C   0  0  0  0  0  0  0  0  0  0  0  0
   17.0459   -2.2874   16.5665 C   0  0  0  0  0  0  0  0  0  0  0  0
   15.8114   -1.4244   16.2380 C   0  0  0  0  0  0  0  0  0  0  0  0
   16.1098    0.0774   16.3831 C   0  0  0  0  0  0  0  0  0  0  0  0
   16.2452    0.4168   17.7608 O   0  0  0  0  0  0  0  0  0  0  0  0
   14.6827   -1.7183   17.1538 N   0  0  0  0  0  0  0  0  0  0  0  0
   14.0603   -3.0107   16.9423 C   0  0  0  0  0  0  0  0  0  0  0  0
   13.1484   -3.0901   15.7412 C   0  0  0  0  0  0  0  0  0  0  0  0
   11.6839   -3.0661   16.0245 C   0  0  0  0  0  0  0  0  0  0  0  0
   11.0696   -2.8921   14.6670 C   0  0  0  0  0  0  0  0  0  0  0  0
   12.0247   -2.1531   13.8595 N   0  0  0  0  0  0  0  0  0  0  0  0
   13.2539   -2.0446   14.6306 C   0  0  0  0  0  0  0  0  0  0  0  0
   18.0099   -3.7158   13.5275 H   0  0  0  0  0  0  0  0  0  0  0  0
   18.6575   -2.2784   14.3240 H   0  0  0  0  0  0  0  0  0  0  0  0
   16.9961   -2.2852   13.7117 H   0  0  0  0  0  0  0  0  0  0  0  0
   16.3408   -3.9754   15.3818 H   0  0  0  0  0  0  0  0  0  0  0  0
   19.2558   -3.9400   16.3020 H   0  0  0  0  0  0  0  0  0  0  0  0
   17.9355   -4.8522   17.0565 H   0  0  0  0  0  0  0  0  0  0  0  0
   18.4543   -5.2478   15.4142 H   0  0  0  0  0  0  0  0  0  0  0  0
   17.9491   -1.6635   16.5968 H   0  0  0  0  0  0  0  0  0  0  0  0
   16.9582   -2.7086   17.5769 H   0  0  0  0  0  0  0  0  0  0  0  0
   15.5529   -1.5620   15.1940 H   0  0  0  0  0  0  0  0  0  0  0  0
   17.0340    0.3524   15.8649 H   0  0  0  0  0  0  0  0  0  0  0  0
   15.2976    0.6822   15.9634 H   0  0  0  0  0  0  0  0  0  0  0  0
   15.3553    0.2933   18.1357 H   0  0  0  0  0  0  0  0  0  0  0  0
   15.0756   -1.7235   18.1001 H   0  0  0  0  0  0  0  0  0  0  0  0
   14.8190   -3.7978   16.8958 H   0  0  0  0  0  0  0  0  0  0  0  0
   13.4845   -3.2656   17.8393 H   0  0  0  0  0  0  0  0  0  0  0  0
   13.3094   -4.0951   15.3915 H   0  0  0  0  0  0  0  0  0  0  0  0
   11.3541   -3.9825   16.5149 H   0  0  0  0  0  0  0  0  0  0  0  0
   11.4436   -2.2021   16.6212 H   0  0  0  0  0  0  0  0  0  0  0  0
   10.9253   -3.8664   14.2067 H   0  0  0  0  0  0  0  0  0  0  0  0
   10.1029   -2.3927   14.7559 H   0  0  0  0  0  0  0  0  0  0  0  0
   11.6485   -1.2321   13.6290 H   0  0  0  0  0  0  0  0  0  0  0  0
   14.1022   -2.2095   13.9633 H   0  0  0  0  0  0  0  0  0  0  0  0
   13.3089   -1.0264   15.0295 H   0  0  0  0  0  0  0  0  0  0  0  0
  1  2  1  0
  2  3  1  0
  2  4  1  0
  4  5  1  0
  5  6  1  0
  6  7  1  0
  5  8  1  0
  8  9  1  0
  9 10  1  0
 10 11  1  0
 11 12  1  0
 12 13  1  0
 13 14  1  0
 14 10  1  0
  1 15  1  0
  1 16  1  0
  1 17  1  0
  2 18  1  0
  3 19  1  0
  3 20  1  0
  3 21  1  0
  4 22  1  0
  4 23  1  0
  5 24  1  0
  6 25  1  0
  6 26  1  0
  7 27  1  0
  8 28  1  0
  9 29  1  0
  9 30  1  0
 10 31  1  0
 11 32  1  0
 11 33  1  0
 12 34  1  0
 12 35  1  0
 13 36  1  0
 14 37  1  0
 14 38  1  0
M  END
>  <Energy>  (611) 
48.436645407007482

>  <compound_id>  (611) 
54720

>  <target_id>  (611) 
1

>  <reference_id>  (611) 
124

>  <inspiration_ids>  (611) 
[124, 76]

>  <energy_score>  (611) 
-21.529696289336997

>  <distance_score>  (611) 
1.266999496091185

>  <path>  (611) 
/opt/xchem-fragalysis-2/maxwin/BulkDock/SCRATCH/511024/C54720-P124/C54720-P124.minimised.mol

>  <scratch_subdir>  (611) 
/opt/xchem-fragalysis-2/maxwin/BulkDock/SCRATCH/511024/C54720-P124

>  <fragmenstein_runtime>  (611) 
6.953129529953003

>  <fragmenstein_outcome>  (611) 
too moved

>  <fragmenstein_mode>  (611) 
expansion

>  <fragmenstein_error>  (611) 


$$$$
C54720-P76
     RDKit          3D

 38 38  0  0  0  0  0  0  0  0999 V2000
   17.7115   -2.7938   14.1648 C   0  0  0  0  0  0  0  0  0  0  0  0
   17.2156   -3.3211   15.5122 C   0  0  0  0  0  0  0  0  0  0  0  0
   18.1908   -4.3668   16.0503 C   0  0  0  0  0  0  0  0  0  0  0  0
   17.0605   -2.1772   16.5349 C   0  0  0  0  0  0  0  0  0  0  0  0
   15.8566   -1.2539   16.2613 C   0  0  0  0  0  0  0  0  0  0  0  0
   16.1923    0.2145   16.5811 C   0  0  0  0  0  0  0  0  0  0  0  0
   16.4267    0.3732   17.9815 O   0  0  0  0  0  0  0  0  0  0  0  0
   14.6982   -1.5672   17.1134 N   0  0  0  0  0  0  0  0  0  0  0  0
   14.1481   -2.8952   17.0231 C   0  0  0  0  0  0  0  0  0  0  0  0
   13.2698   -3.0956   15.8120 C   0  0  0  0  0  0  0  0  0  0  0  0
   11.7985   -3.0871   16.0623 C   0  0  0  0  0  0  0  0  0  0  0  0
   11.1815   -2.9245   14.7019 C   0  0  0  0  0  0  0  0  0  0  0  0
   12.1881   -2.3429   13.8304 N   0  0  0  0  0  0  0  0  0  0  0  0
   13.3649   -2.0998   14.6523 C   0  0  0  0  0  0  0  0  0  0  0  0
   17.9354   -3.6164   13.4791 H   0  0  0  0  0  0  0  0  0  0  0  0
   18.6296   -2.2075   14.2819 H   0  0  0  0  0  0  0  0  0  0  0  0
   16.9646   -2.1576   13.6814 H   0  0  0  0  0  0  0  0  0  0  0  0
   16.2556   -3.8186   15.3461 H   0  0  0  0  0  0  0  0  0  0  0  0
   19.1812   -3.9343   16.2286 H   0  0  0  0  0  0  0  0  0  0  0  0
   17.8283   -4.7879   16.9941 H   0  0  0  0  0  0  0  0  0  0  0  0
   18.3049   -5.1939   15.3413 H   0  0  0  0  0  0  0  0  0  0  0  0
   17.9893   -1.5904   16.5308 H   0  0  0  0  0  0  0  0  0  0  0  0
   16.9921   -2.5899   17.5506 H   0  0  0  0  0  0  0  0  0  0  0  0
   15.6154   -1.2651   15.2022 H   0  0  0  0  0  0  0  0  0  0  0  0
   17.0781    0.5550   16.0341 H   0  0  0  0  0  0  0  0  0  0  0  0
   15.3588    0.8714   16.3077 H   0  0  0  0  0  0  0  0  0  0  0  0
   17.2767   -0.0523   18.1840 H   0  0  0  0  0  0  0  0  0  0  0  0
   14.9652   -1.3527   18.0794 H   0  0  0  0  0  0  0  0  0  0  0  0
   14.9326   -3.6568   17.0657 H   0  0  0  0  0  0  0  0  0  0  0  0
   13.5583   -3.0933   17.9242 H   0  0  0  0  0  0  0  0  0  0  0  0
   13.4771   -4.1202   15.5461 H   0  0  0  0  0  0  0  0  0  0  0  0
   11.4712   -4.0011   16.5601 H   0  0  0  0  0  0  0  0  0  0  0  0
   11.5492   -2.2177   16.6477 H   0  0  0  0  0  0  0  0  0  0  0  0
   10.9111   -3.8986   14.3067 H   0  0  0  0  0  0  0  0  0  0  0  0
   10.2805   -2.3124   14.7795 H   0  0  0  0  0  0  0  0  0  0  0  0
   11.8306   -1.4700   13.4385 H   0  0  0  0  0  0  0  0  0  0  0  0
   13.3212   -1.0609   14.9975 H   0  0  0  0  0  0  0  0  0  0  0  0
   14.2606   -2.2321   14.0422 H   0  0  0  0  0  0  0  0  0  0  0  0
  1  2  1  0
  2  3  1  0
  2  4  1  0
  4  5  1  0
  5  6  1  0
  6  7  1  0
  5  8  1  0
  8  9  1  0
  9 10  1  0
 10 11  1  0
 11 12  1  0
 12 13  1  0
 13 14  1  0
 14 10  1  0
  1 15  1  0
  1 16  1  0
  1 17  1  0
  2 18  1  0
  3 19  1  0
  3 20  1  0
  3 21  1  0
  4 22  1  0
  4 23  1  0
  5 24  1  0
  6 25  1  0
  6 26  1  0
  7 27  1  0
  8 28  1  0
  9 29  1  0
  9 30  1  0
 10 31  1  0
 11 32  1  0
 11 33  1  0
 12 34  1  0
 12 35  1  0
 13 36  1  0
 14 37  1  0
 14 38  1  0
M  END
>  <Energy>  (612) 
50.841745057467563

>  <compound_id>  (612) 
54720

>  <target_id>  (612) 
1

>  <reference_id>  (612) 
76

>  <inspiration_ids>  (612) 
[124, 76]

>  <energy_score>  (612) 
-19.124596638877136

>  <distance_score>  (612) 
1.312675187184141

>  <path>  (612) 
/opt/xchem-fragalysis-2/maxwin/BulkDock/SCRATCH/511024/C54720-P76/C54720-P76.minimised.mol

>  <scratch_subdir>  (612) 
/opt/xchem-fragalysis-2/maxwin/BulkDock/SCRATCH/511024/C54720-P76

>  <fragmenstein_runtime>  (612) 
6.4564528465271

>  <fragmenstein_outcome>  (612) 
too moved

>  <fragmenstein_mode>  (612) 
expansion

>  <fragmenstein_error>  (612) 


$$$$
C54721-P124
     RDKit          3D

 38 38  0  0  0  0  0  0  0  0999 V2000
   15.8020    1.2386   18.2897 C   0  0  0  0  0  0  0  0  0  0  0  0
   15.8527   -0.2891   18.2196 C   0  0  0  0  0  0  0  0  0  0  0  0
   16.2838   -0.8742   16.9326 N   0  0  0  0  0  0  0  0  0  0  0  0
   15.2456   -0.7281   15.8878 C   0  0  0  0  0  0  0  0  0  0  0  0
   14.4369   -2.0300   15.6804 C   0  0  0  0  0  0  0  0  0  0  0  0
   13.2085   -1.8500   14.7876 C   0  0  0  0  0  0  0  0  0  0  0  0
   12.1650   -2.8081   15.3597 C   0  0  0  0  0  0  0  0  0  0  0  0
   12.8915   -3.5762   16.4519 C   0  0  0  0  0  0  0  0  0  0  0  0
   13.8908   -2.6218   16.9088 N   0  0  0  0  0  0  0  0  0  0  0  0
   17.6091   -0.3891   16.5259 C   0  0  0  0  0  0  0  0  0  0  0  0
   18.5042   -1.4672   15.8802 C   0  0  0  0  0  0  0  0  0  0  0  0
   17.9334   -2.1923   14.6633 C   0  0  0  0  0  0  0  0  0  0  0  0
   19.9046   -0.8705   15.5916 C   0  0  0  0  0  0  0  0  0  0  0  0
   19.8859    0.0621   14.4811 N   0  0  0  0  0  0  0  0  0  0  0  0
   20.8043   -1.2145   16.3073 O   0  0  0  0  0  0  0  0  0  0  0  0
   15.1325    1.6661   17.5388 H   0  0  0  0  0  0  0  0  0  0  0  0
   16.7920    1.6853   18.1570 H   0  0  0  0  0  0  0  0  0  0  0  0
   15.4335    1.5481   19.2736 H   0  0  0  0  0  0  0  0  0  0  0  0
   16.5335   -0.6477   19.0024 H   0  0  0  0  0  0  0  0  0  0  0  0
   14.8706   -0.6853   18.4996 H   0  0  0  0  0  0  0  0  0  0  0  0
   14.5665    0.1005   16.1151 H   0  0  0  0  0  0  0  0  0  0  0  0
   15.6903   -0.4633   14.9211 H   0  0  0  0  0  0  0  0  0  0  0  0
   15.0918   -2.7753   15.2162 H   0  0  0  0  0  0  0  0  0  0  0  0
   12.8246   -0.8256   14.8006 H   0  0  0  0  0  0  0  0  0  0  0  0
   13.4421   -2.0950   13.7459 H   0  0  0  0  0  0  0  0  0  0  0  0
   11.7428   -3.4587   14.5905 H   0  0  0  0  0  0  0  0  0  0  0  0
   11.3333   -2.2358   15.7834 H   0  0  0  0  0  0  0  0  0  0  0  0
   13.3835   -4.4693   16.0645 H   0  0  0  0  0  0  0  0  0  0  0  0
   12.2277   -3.8898   17.2548 H   0  0  0  0  0  0  0  0  0  0  0  0
   14.6437   -3.0691   17.4318 H   0  0  0  0  0  0  0  0  0  0  0  0
   17.5170    0.4981   15.8866 H   0  0  0  0  0  0  0  0  0  0  0  0
   18.1648   -0.0433   17.4093 H   0  0  0  0  0  0  0  0  0  0  0  0
   18.6732   -2.2454   16.6402 H   0  0  0  0  0  0  0  0  0  0  0  0
   17.4426   -1.5147   13.9595 H   0  0  0  0  0  0  0  0  0  0  0  0
   17.2117   -2.9517   14.9728 H   0  0  0  0  0  0  0  0  0  0  0  0
   18.7258   -2.7149   14.1156 H   0  0  0  0  0  0  0  0  0  0  0  0
   18.9593    0.0222   14.0224 H   0  0  0  0  0  0  0  0  0  0  0  0
   18.9078    0.1992   14.1718 H   0  0  0  0  0  0  0  0  0  0  0  0
  1  2  1  0
  2  3  1  0
  3  4  1  0
  4  5  1  0
  5  6  1  0
  6  7  1  0
  7  8  1  0
  8  9  1  0
  3 10  1  0
 10 11  1  0
 11 12  1  0
 11 13  1  0
 13 14  1  0
 13 15  2  0
  9  5  1  0
  1 16  1  0
  1 17  1  0
  1 18  1  0
  2 19  1  0
  2 20  1  0
  4 21  1  0
  4 22  1  0
  5 23  1  0
  6 24  1  0
  6 25  1  0
  7 26  1  0
  7 27  1  0
  8 28  1  0
  8 29  1  0
  9 30  1  0
 10 31  1  0
 10 32  1  0
 11 33  1  0
 12 34  1  0
 12 35  1  0
 12 36  1  0
 14 37  1  0
 14 38  1  0
M  END
>  <Energy>  (613) 
201.81060499031656

>  <compound_id>  (613) 
54721

>  <target_id>  (613) 
1

>  <reference_id>  (613) 
124

>  <inspiration_ids>  (613) 
[124, 76]

>  <energy_score>  (613) 
141.17086252323455

>  <distance_score>  (613) 
2.059251209523581

>  <path>  (613) 
/opt/xchem-fragalysis-2/maxwin/BulkDock/SCRATCH/511024/C54721-P124/C54721-P124.minimised.mol

>  <scratch_subdir>  (613) 
/opt/xchem-fragalysis-2/maxwin/BulkDock/SCRATCH/511024/C54721-P124

>  <fragmenstein_runtime>  (613) 
4.863983869552612

>  <fragmenstein_outcome>  (613) 
too moved

>  <fragmenstein_mode>  (613) 
expansion

>  <fragmenstein_error>  (613) 


$$$$
C54721-P76
     RDKit          3D

 38 38  0  0  0  0  0  0  0  0999 V2000
   15.8040    1.3365   18.2564 C   0  0  0  0  0  0  0  0  0  0  0  0
   15.8705   -0.1919   18.2366 C   0  0  0  0  0  0  0  0  0  0  0  0
   16.3076   -0.8147   16.9709 N   0  0  0  0  0  0  0  0  0  0  0  0
   15.2774   -0.7005   15.9138 C   0  0  0  0  0  0  0  0  0  0  0  0
   14.4800   -2.0120   15.7300 C   0  0  0  0  0  0  0  0  0  0  0  0
   13.2479   -1.8586   14.8383 C   0  0  0  0  0  0  0  0  0  0  0  0
   12.2148   -2.8134   15.4344 C   0  0  0  0  0  0  0  0  0  0  0  0
   12.9557   -3.5628   16.5308 C   0  0  0  0  0  0  0  0  0  0  0  0
   13.9437   -2.5891   16.9701 N   0  0  0  0  0  0  0  0  0  0  0  0
   17.6357   -0.3496   16.5526 C   0  0  0  0  0  0  0  0  0  0  0  0
   18.5479   -1.4696   16.0108 C   0  0  0  0  0  0  0  0  0  0  0  0
   17.9587   -2.3693   14.9258 C   0  0  0  0  0  0  0  0  0  0  0  0
   19.9090   -0.8630   15.5892 C   0  0  0  0  0  0  0  0  0  0  0  0
   19.8111   -0.1002   14.3594 N   0  0  0  0  0  0  0  0  0  0  0  0
   20.8451   -1.0591   16.3140 O   0  0  0  0  0  0  0  0  0  0  0  0
   15.1196    1.7313   17.5010 H   0  0  0  0  0  0  0  0  0  0  0  0
   16.7867    1.7896   18.0955 H   0  0  0  0  0  0  0  0  0  0  0  0
   15.4445    1.6747   19.2342 H   0  0  0  0  0  0  0  0  0  0  0  0
   16.5538   -0.5179   19.0314 H   0  0  0  0  0  0  0  0  0  0  0  0
   14.8917   -0.5886   18.5282 H   0  0  0  0  0  0  0  0  0  0  0  0
   14.5907    0.1284   16.1151 H   0  0  0  0  0  0  0  0  0  0  0  0
   15.7302   -0.4580   14.9443 H   0  0  0  0  0  0  0  0  0  0  0  0
   15.1403   -2.7574   15.2734 H   0  0  0  0  0  0  0  0  0  0  0  0
   12.8578   -0.8374   14.8314 H   0  0  0  0  0  0  0  0  0  0  0  0
   13.4791   -2.1206   13.8004 H   0  0  0  0  0  0  0  0  0  0  0  0
   11.7848   -3.4742   14.6789 H   0  0  0  0  0  0  0  0  0  0  0  0
   11.3858   -2.2377   15.8571 H   0  0  0  0  0  0  0  0  0  0  0  0
   13.4571   -4.4561   16.1540 H   0  0  0  0  0  0  0  0  0  0  0  0
   12.3019   -3.8749   17.3421 H   0  0  0  0  0  0  0  0  0  0  0  0
   14.7044   -3.0190   17.4972 H   0  0  0  0  0  0  0  0  0  0  0  0
   17.5511    0.4858   15.8461 H   0  0  0  0  0  0  0  0  0  0  0  0
   18.1755    0.0702   17.4136 H   0  0  0  0  0  0  0  0  0  0  0  0
   18.7767   -2.1369   16.8558 H   0  0  0  0  0  0  0  0  0  0  0  0
   17.2809   -3.1045   15.3679 H   0  0  0  0  0  0  0  0  0  0  0  0
   18.7488   -2.9327   14.4166 H   0  0  0  0  0  0  0  0  0  0  0  0
   17.4114   -1.8102   14.1621 H   0  0  0  0  0  0  0  0  0  0  0  0
   18.8751   -0.2484   13.9440 H   0  0  0  0  0  0  0  0  0  0  0  0
   18.8187   -0.0545   14.0686 H   0  0  0  0  0  0  0  0  0  0  0  0
  1  2  1  0
  2  3  1  0
  3  4  1  0
  4  5  1  0
  5  6  1  0
  6  7  1  0
  7  8  1  0
  8  9  1  0
  3 10  1  0
 10 11  1  0
 11 12  1  0
 11 13  1  0
 13 14  1  0
 13 15  2  0
  9  5  1  0
  1 16  1  0
  1 17  1  0
  1 18  1  0
  2 19  1  0
  2 20  1  0
  4 21  1  0
  4 22  1  0
  5 23  1  0
  6 24  1  0
  6 25  1  0
  7 26  1  0
  7 27  1  0
  8 28  1  0
  8 29  1  0
  9 30  1  0
 10 31  1  0
 10 32  1  0
 11 33  1  0
 12 34  1  0
 12 35  1  0
 12 36  1  0
 14 37  1  0
 14 38  1  0
M  END
>  <Energy>  (614) 
202.11576399370946

>  <compound_id>  (614) 
54721

>  <target_id>  (614) 
1

>  <reference_id>  (614) 
76

>  <inspiration_ids>  (614) 
[124, 76]

>  <energy_score>  (614) 
141.47602152662773

>  <distance_score>  (614) 
2.1677146604709856

>  <path>  (614) 
/opt/xchem-fragalysis-2/maxwin/BulkDock/SCRATCH/511024/C54721-P76/C54721-P76.minimised.mol

>  <scratch_subdir>  (614) 
/opt/xchem-fragalysis-2/maxwin/BulkDock/SCRATCH/511024/C54721-P76

>  <fragmenstein_runtime>  (614) 
5.141066789627075

>  <fragmenstein_outcome>  (614) 
too moved

>  <fragmenstein_mode>  (614) 
expansion

>  <fragmenstein_error>  (614) 


$$$$
C54722-P124
     RDKit          3D

 53 53  0  0  0  0  0  0  0  0999 V2000
   18.4552   -0.1674   17.9156 C   0  0  0  0  0  0  0  0  0  0  0  0
   17.6385   -0.9077   16.8828 C   0  0  0  0  0  0  0  0  0  0  0  0
   17.5246   -0.1637   15.5432 C   0  0  0  0  0  0  0  0  0  0  0  0
   16.4249    0.9369   15.5310 C   0  0  0  0  0  0  0  0  0  0  0  0
   16.7212    2.0811   14.5109 C   0  0  0  0  0  0  0  0  0  0  0  0
   16.3125    1.7833   13.1756 O   0  0  0  0  0  0  0  0  0  0  0  0
   15.0723    0.4737   15.2426 N   0  0  0  0  0  0  0  0  0  0  0  0
   14.5730   -0.7277   15.8728 C   0  0  0  0  0  0  0  0  0  0  0  0
   14.7850   -2.0588   15.1015 C   0  0  0  0  0  0  0  0  0  0  0  0
   15.3791   -3.1734   16.0363 C   0  0  0  0  0  0  0  0  0  0  0  0
   14.4316   -3.9994   16.8905 C   0  0  0  0  0  0  0  0  0  0  0  0
   13.5761   -3.2420   17.8414 C   0  0  0  0  0  0  0  0  0  0  0  0
   16.4389   -4.1529   15.4464 C   0  0  0  0  0  0  0  0  0  0  0  0
   17.4449   -3.6373   14.4316 C   0  0  0  0  0  0  0  0  0  0  0  0
   13.7117   -2.3823   14.1419 N   0  0  0  0  0  0  0  0  0  0  0  0
   12.4103   -2.9130   14.5342 C   0  0  0  0  0  0  0  0  0  0  0  0
   11.5134   -1.7364   14.6782 C   0  0  0  0  0  0  0  0  0  0  0  0
   12.1118   -0.7021   13.7388 C   0  0  0  0  0  0  0  0  0  0  0  0
   13.4052   -1.2988   13.2110 C   0  0  0  0  0  0  0  0  0  0  0  0
   19.4786   -0.0031   17.5628 H   0  0  0  0  0  0  0  0  0  0  0  0
   18.5109   -0.7446   18.8445 H   0  0  0  0  0  0  0  0  0  0  0  0
   18.0178    0.8071   18.1531 H   0  0  0  0  0  0  0  0  0  0  0  0
   18.1086   -1.8822   16.7348 H   0  0  0  0  0  0  0  0  0  0  0  0
   16.6803   -1.0405   17.3665 H   0  0  0  0  0  0  0  0  0  0  0  0
   17.3646   -0.8494   14.7116 H   0  0  0  0  0  0  0  0  0  0  0  0
   18.4969    0.3011   15.3335 H   0  0  0  0  0  0  0  0  0  0  0  0
   16.4254    1.4081   16.5219 H   0  0  0  0  0  0  0  0  0  0  0  0
   17.7882    2.3268   14.5034 H   0  0  0  0  0  0  0  0  0  0  0  0
   16.1740    2.9811   14.8162 H   0  0  0  0  0  0  0  0  0  0  0  0
   16.5373    2.5519   12.6274 H   0  0  0  0  0  0  0  0  0  0  0  0
   14.4021    1.2383   15.2828 H   0  0  0  0  0  0  0  0  0  0  0  0
   14.8030   -0.7658   16.9377 H   0  0  0  0  0  0  0  0  0  0  0  0
   13.5142   -0.5706   15.8498 H   0  0  0  0  0  0  0  0  0  0  0  0
   15.6157   -1.8435   14.4289 H   0  0  0  0  0  0  0  0  0  0  0  0
   15.9598   -2.6520   16.7858 H   0  0  0  0  0  0  0  0  0  0  0  0
   15.0786   -4.5913   17.5457 H   0  0  0  0  0  0  0  0  0  0  0  0
   13.8349   -4.6815   16.2876 H   0  0  0  0  0  0  0  0  0  0  0  0
   14.1781   -2.5388   18.4256 H   0  0  0  0  0  0  0  0  0  0  0  0
   12.7987   -2.7084   17.3033 H   0  0  0  0  0  0  0  0  0  0  0  0
   13.0983   -3.9382   18.5375 H   0  0  0  0  0  0  0  0  0  0  0  0
   15.9504   -5.0371   15.0476 H   0  0  0  0  0  0  0  0  0  0  0  0
   17.0277   -4.5446   16.2895 H   0  0  0  0  0  0  0  0  0  0  0  0
   18.0712   -4.4672   14.0853 H   0  0  0  0  0  0  0  0  0  0  0  0
   16.9694   -3.1973   13.5525 H   0  0  0  0  0  0  0  0  0  0  0  0
   18.1264   -2.9083   14.8669 H   0  0  0  0  0  0  0  0  0  0  0  0
   12.0095   -3.5044   13.7017 H   0  0  0  0  0  0  0  0  0  0  0  0
   12.3806   -3.5604   15.4033 H   0  0  0  0  0  0  0  0  0  0  0  0
   11.5558   -1.4454   15.7136 H   0  0  0  0  0  0  0  0  0  0  0  0
   10.4723   -1.9810   14.4882 H   0  0  0  0  0  0  0  0  0  0  0  0
   12.3961    0.2145   14.2437 H   0  0  0  0  0  0  0  0  0  0  0  0
   11.3949   -0.3836   12.9892 H   0  0  0  0  0  0  0  0  0  0  0  0
   13.2851   -1.7330   12.2247 H   0  0  0  0  0  0  0  0  0  0  0  0
   14.1963   -0.5548   13.0802 H   0  0  0  0  0  0  0  0  0  0  0  0
  1  2  1  0
  2  3  1  0
  3  4  1  0
  4  5  1  0
  5  6  1  0
  4  7  1  0
  7  8  1  0
  8  9  1  0
  9 10  1  0
 10 11  1  0
 11 12  1  0
 10 13  1  0
 13 14  1  0
  9 15  1  0
 15 16  1  0
 16 17  1  0
 17 18  1  0
 18 19  1  0
 19 15  1  0
  1 20  1  0
  1 21  1  0
  1 22  1  0
  2 23  1  0
  2 24  1  0
  3 25  1  0
  3 26  1  0
  4 27  1  0
  5 28  1  0
  5 29  1  0
  6 30  1  0
  7 31  1  0
  8 32  1  0
  8 33  1  0
  9 34  1  0
 10 35  1  0
 11 36  1  0
 11 37  1  0
 12 38  1  0
 12 39  1  0
 12 40  1  0
 13 41  1  0
 13 42  1  0
 14 43  1  0
 14 44  1  0
 14 45  1  0
 16 46  1  0
 16 47  1  0
 17 48  1  0
 17 49  1  0
 18 50  1  0
 18 51  1  0
 19 52  1  0
 19 53  1  0
M  END
>  <Energy>  (615) 
116.24322442541497

>  <compound_id>  (615) 
54722

>  <target_id>  (615) 
1

>  <reference_id>  (615) 
124

>  <inspiration_ids>  (615) 
[124, 76]

>  <energy_score>  (615) 
2.6940161602429953

>  <distance_score>  (615) 
2.195819593571038

>  <path>  (615) 
/opt/xchem-fragalysis-2/maxwin/BulkDock/SCRATCH/511024/C54722-P124/C54722-P124.minimised.mol

>  <scratch_subdir>  (615) 
/opt/xchem-fragalysis-2/maxwin/BulkDock/SCRATCH/511024/C54722-P124

>  <fragmenstein_runtime>  (615) 
6.827186584472656

>  <fragmenstein_outcome>  (615) 
too moved

>  <fragmenstein_mode>  (615) 
expansion

>  <fragmenstein_error>  (615) 


$$$$
C54722-P76
     RDKit          3D

 53 53  0  0  0  0  0  0  0  0999 V2000
   16.8268    0.5305   18.7779 C   0  0  0  0  0  0  0  0  0  0  0  0
   16.5265   -0.0531   17.4227 C   0  0  0  0  0  0  0  0  0  0  0  0
   17.2621    0.6368   16.2797 C   0  0  0  0  0  0  0  0  0  0  0  0
   16.8397    0.1490   14.8904 C   0  0  0  0  0  0  0  0  0  0  0  0
   15.5659    0.8243   14.3400 C   0  0  0  0  0  0  0  0  0  0  0  0
   15.7742    2.1922   13.9782 O   0  0  0  0  0  0  0  0  0  0  0  0
   16.9266   -1.2932   15.0243 N   0  0  0  0  0  0  0  0  0  0  0  0
   15.8638   -2.1994   14.6813 C   0  0  0  0  0  0  0  0  0  0  0  0
   14.7495   -2.6853   15.7131 C   0  0  0  0  0  0  0  0  0  0  0  0
   15.1805   -3.0008   17.2053 C   0  0  0  0  0  0  0  0  0  0  0  0
   14.1738   -3.8995   17.9649 C   0  0  0  0  0  0  0  0  0  0  0  0
   14.6026   -4.3344   19.3642 C   0  0  0  0  0  0  0  0  0  0  0  0
   16.6249   -3.5873   17.3110 C   0  0  0  0  0  0  0  0  0  0  0  0
   16.8358   -4.9932   16.7706 C   0  0  0  0  0  0  0  0  0  0  0  0
   13.4150   -2.0493   15.4985 N   0  0  0  0  0  0  0  0  0  0  0  0
   12.2978   -2.9298   15.8607 C   0  0  0  0  0  0  0  0  0  0  0  0
   11.1232   -2.5724   14.9963 C   0  0  0  0  0  0  0  0  0  0  0  0
   11.6965   -1.7554   13.8834 C   0  0  0  0  0  0  0  0  0  0  0  0
   13.1681   -1.6872   14.1031 C   0  0  0  0  0  0  0  0  0  0  0  0
   16.5036    1.5749   18.8348 H   0  0  0  0  0  0  0  0  0  0  0  0
   17.8993    0.4956   18.9956 H   0  0  0  0  0  0  0  0  0  0  0  0
   16.3040   -0.0280   19.5611 H   0  0  0  0  0  0  0  0  0  0  0  0
   16.8869   -1.0707   17.4870 H   0  0  0  0  0  0  0  0  0  0  0  0
   15.4466   -0.0232   17.2515 H   0  0  0  0  0  0  0  0  0  0  0  0
   18.3413    0.4729   16.4123 H   0  0  0  0  0  0  0  0  0  0  0  0
   17.1179    1.7215   16.3514 H   0  0  0  0  0  0  0  0  0  0  0  0
   17.6412    0.4613   14.2058 H   0  0  0  0  0  0  0  0  0  0  0  0
   14.7360    0.7752   15.0505 H   0  0  0  0  0  0  0  0  0  0  0  0
   15.2772    0.3328   13.4082 H   0  0  0  0  0  0  0  0  0  0  0  0
   15.8371    2.6971   14.8064 H   0  0  0  0  0  0  0  0  0  0  0  0
   17.7970   -1.6082   14.5945 H   0  0  0  0  0  0  0  0  0  0  0  0
   16.3948   -3.1340   14.4434 H   0  0  0  0  0  0  0  0  0  0  0  0
   15.4895   -1.9328   13.6928 H   0  0  0  0  0  0  0  0  0  0  0  0
   14.6195   -3.7122   15.4028 H   0  0  0  0  0  0  0  0  0  0  0  0
   15.1513   -2.0643   17.7595 H   0  0  0  0  0  0  0  0  0  0  0  0
   13.9142   -4.7617   17.3560 H   0  0  0  0  0  0  0  0  0  0  0  0
   13.2630   -3.3443   18.1419 H   0  0  0  0  0  0  0  0  0  0  0  0
   15.4289   -5.0481   19.3468 H   0  0  0  0  0  0  0  0  0  0  0  0
   14.9001   -3.4701   19.9668 H   0  0  0  0  0  0  0  0  0  0  0  0
   13.7645   -4.8233   19.8729 H   0  0  0  0  0  0  0  0  0  0  0  0
   16.9475   -3.5658   18.3594 H   0  0  0  0  0  0  0  0  0  0  0  0
   17.3455   -2.9497   16.7987 H   0  0  0  0  0  0  0  0  0  0  0  0
   17.9084   -5.1953   16.6761 H   0  0  0  0  0  0  0  0  0  0  0  0
   16.4391   -5.7410   17.4572 H   0  0  0  0  0  0  0  0  0  0  0  0
   16.3850   -5.1348   15.7866 H   0  0  0  0  0  0  0  0  0  0  0  0
   12.5208   -3.9893   15.7371 H   0  0  0  0  0  0  0  0  0  0  0  0
   12.0017   -2.7664   16.8860 H   0  0  0  0  0  0  0  0  0  0  0  0
   10.3689   -1.9978   15.5319 H   0  0  0  0  0  0  0  0  0  0  0  0
   10.6436   -3.4792   14.6298 H   0  0  0  0  0  0  0  0  0  0  0  0
   11.2542   -0.7579   13.8325 H   0  0  0  0  0  0  0  0  0  0  0  0
   11.5437   -2.2767   12.9441 H   0  0  0  0  0  0  0  0  0  0  0  0
   13.6114   -2.3806   13.3829 H   0  0  0  0  0  0  0  0  0  0  0  0
   13.5111   -0.6828   13.8708 H   0  0  0  0  0  0  0  0  0  0  0  0
  1  2  1  0
  2  3  1  0
  3  4  1  0
  4  5  1  0
  5  6  1  0
  4  7  1  0
  7  8  1  0
  8  9  1  0
  9 10  1  0
 10 11  1  0
 11 12  1  0
 10 13  1  0
 13 14  1  0
  9 15  1  0
 15 16  1  0
 16 17  1  0
 17 18  1  0
 18 19  1  0
 19 15  1  0
  1 20  1  0
  1 21  1  0
  1 22  1  0
  2 23  1  0
  2 24  1  0
  3 25  1  0
  3 26  1  0
  4 27  1  0
  5 28  1  0
  5 29  1  0
  6 30  1  0
  7 31  1  0
  8 32  1  0
  8 33  1  0
  9 34  1  0
 10 35  1  0
 11 36  1  0
 11 37  1  0
 12 38  1  0
 12 39  1  0
 12 40  1  0
 13 41  1  0
 13 42  1  0
 14 43  1  0
 14 44  1  0
 14 45  1  0
 16 46  1  0
 16 47  1  0
 17 48  1  0
 17 49  1  0
 18 50  1  0
 18 51  1  0
 19 52  1  0
 19 53  1  0
M  END
>  <Energy>  (616) 
109.71120198612573

>  <compound_id>  (616) 
54722

>  <target_id>  (616) 
1

>  <reference_id>  (616) 
76

>  <inspiration_ids>  (616) 
[124, 76]

>  <energy_score>  (616) 
-3.8380062790482157

>  <distance_score>  (616) 
2.567177066915082

>  <path>  (616) 
/opt/xchem-fragalysis-2/maxwin/BulkDock/SCRATCH/511024/C54722-P76/C54722-P76.minimised.mol

>  <scratch_subdir>  (616) 
/opt/xchem-fragalysis-2/maxwin/BulkDock/SCRATCH/511024/C54722-P76

>  <fragmenstein_runtime>  (616) 
6.140448331832886

>  <fragmenstein_outcome>  (616) 
too moved

>  <fragmenstein_mode>  (616) 
expansion

>  <fragmenstein_error>  (616) 


$$$$
C54724-P124
     RDKit          3D

 35 35  0  0  0  0  0  0  0  0999 V2000
   19.6610    0.4297   14.4913 C   0  0  0  0  0  0  0  0  0  0  0  0
   18.9222   -0.2714   15.4961 N   0  0  0  0  0  0  0  0  0  0  0  0
   19.1926   -1.6386   16.1738 C   0  0  0  0  0  0  0  0  0  0  0  0
   20.0997   -2.3669   16.0724 O   0  0  0  0  0  0  0  0  0  0  0  0
   18.0115   -1.8767   17.1621 C   0  0  0  0  0  0  0  0  0  0  0  0
   18.3846   -1.2968   18.5137 C   0  0  0  0  0  0  0  0  0  0  0  0
   16.7694   -1.2569   16.6161 N   0  0  0  0  0  0  0  0  0  0  0  0
   15.5974   -1.5257   17.4650 C   0  0  0  0  0  0  0  0  0  0  0  0
   15.2323   -0.1991   18.1124 C   0  0  0  0  0  0  0  0  0  0  0  0
   14.4136   -2.1936   16.6945 C   0  0  0  0  0  0  0  0  0  0  0  0
   13.9235   -1.4432   15.4469 C   0  0  0  0  0  0  0  0  0  0  0  0
   14.7711   -1.9732   14.3063 C   0  0  0  0  0  0  0  0  0  0  0  0
   15.5860   -3.0272   14.9207 N   0  0  0  0  0  0  0  0  0  0  0  0
   14.8619   -3.5105   16.0963 C   0  0  0  0  0  0  0  0  0  0  0  0
   19.1193    0.3516   13.5460 H   0  0  0  0  0  0  0  0  0  0  0  0
   19.7433    1.4784   14.7842 H   0  0  0  0  0  0  0  0  0  0  0  0
   20.6519   -0.0175   14.3874 H   0  0  0  0  0  0  0  0  0  0  0  0
   17.9882    0.0560   15.7492 H   0  0  0  0  0  0  0  0  0  0  0  0
   17.8758   -2.9631   17.2333 H   0  0  0  0  0  0  0  0  0  0  0  0
   17.6714   -1.5601   19.2999 H   0  0  0  0  0  0  0  0  0  0  0  0
   18.4696   -0.2047   18.4752 H   0  0  0  0  0  0  0  0  0  0  0  0
   19.3628   -1.6751   18.8335 H   0  0  0  0  0  0  0  0  0  0  0  0
   16.6187   -1.7706   15.7320 H   0  0  0  0  0  0  0  0  0  0  0  0
   15.8486   -2.2289   18.2698 H   0  0  0  0  0  0  0  0  0  0  0  0
   14.9189    0.5506   17.3805 H   0  0  0  0  0  0  0  0  0  0  0  0
   14.4324   -0.3474   18.8402 H   0  0  0  0  0  0  0  0  0  0  0  0
   16.0719    0.2303   18.6689 H   0  0  0  0  0  0  0  0  0  0  0  0
   13.5985   -2.3824   17.3968 H   0  0  0  0  0  0  0  0  0  0  0  0
   12.8724   -1.6959   15.2580 H   0  0  0  0  0  0  0  0  0  0  0  0
   13.9999   -0.3563   15.5304 H   0  0  0  0  0  0  0  0  0  0  0  0
   15.4194   -1.1942   13.8919 H   0  0  0  0  0  0  0  0  0  0  0  0
   14.1400   -2.3358   13.4898 H   0  0  0  0  0  0  0  0  0  0  0  0
   15.8580   -3.7600   14.2614 H   0  0  0  0  0  0  0  0  0  0  0  0
   15.5184   -4.0816   16.7586 H   0  0  0  0  0  0  0  0  0  0  0  0
   13.9925   -4.1269   15.8580 H   0  0  0  0  0  0  0  0  0  0  0  0
  1  2  1  0
  2  3  1  0
  3  4  2  0
  3  5  1  0
  5  6  1  0
  5  7  1  0
  7  8  1  0
  8  9  1  0
  8 10  1  0
 10 11  1  0
 11 12  1  0
 12 13  1  0
 13 14  1  0
 14 10  1  0
  1 15  1  0
  1 16  1  0
  1 17  1  0
  2 18  1  0
  5 19  1  0
  6 20  1  0
  6 21  1  0
  6 22  1  0
  7 23  1  0
  8 24  1  0
  9 25  1  0
  9 26  1  0
  9 27  1  0
 10 28  1  0
 11 29  1  0
 11 30  1  0
 12 31  1  0
 12 32  1  0
 13 33  1  0
 14 34  1  0
 14 35  1  0
M  END
>  <Energy>  (617) 
45.74177083044394

>  <compound_id>  (617) 
54724

>  <target_id>  (617) 
1

>  <reference_id>  (617) 
124

>  <inspiration_ids>  (617) 
[124, 76]

>  <energy_score>  (617) 
-6.864215499710696

>  <distance_score>  (617) 
2.348696694705375

>  <path>  (617) 
/opt/xchem-fragalysis-2/maxwin/BulkDock/SCRATCH/511024/C54724-P124/C54724-P124.minimised.mol

>  <scratch_subdir>  (617) 
/opt/xchem-fragalysis-2/maxwin/BulkDock/SCRATCH/511024/C54724-P124

>  <fragmenstein_runtime>  (617) 
8.485222578048706

>  <fragmenstein_outcome>  (617) 
too moved

>  <fragmenstein_mode>  (617) 
expansion

>  <fragmenstein_error>  (617) 


$$$$
C54724-P76
     RDKit          3D

 35 35  0  0  0  0  0  0  0  0999 V2000
   19.0061    1.0116   13.8236 C   0  0  0  0  0  0  0  0  0  0  0  0
   18.4154   -0.0150   14.6278 N   0  0  0  0  0  0  0  0  0  0  0  0
   18.9874   -1.3743   15.1039 C   0  0  0  0  0  0  0  0  0  0  0  0
   19.9985   -1.9000   14.8503 O   0  0  0  0  0  0  0  0  0  0  0  0
   17.9544   -1.9619   16.1139 C   0  0  0  0  0  0  0  0  0  0  0  0
   18.3861   -1.5688   17.5228 C   0  0  0  0  0  0  0  0  0  0  0  0
   16.5840   -1.4750   15.7799 N   0  0  0  0  0  0  0  0  0  0  0  0
   15.5690   -2.0098   16.6994 C   0  0  0  0  0  0  0  0  0  0  0  0
   15.1849   -0.8774   17.6494 C   0  0  0  0  0  0  0  0  0  0  0  0
   14.4222   -2.6095   15.8705 C   0  0  0  0  0  0  0  0  0  0  0  0
   13.6628   -1.6631   14.9504 C   0  0  0  0  0  0  0  0  0  0  0  0
   12.3115   -2.3183   14.8093 C   0  0  0  0  0  0  0  0  0  0  0  0
   12.0729   -2.9967   16.0823 N   0  0  0  0  0  0  0  0  0  0  0  0
   13.3621   -3.3649   16.6589 C   0  0  0  0  0  0  0  0  0  0  0  0
   18.2770    1.3359   13.0783 H   0  0  0  0  0  0  0  0  0  0  0  0
   19.2699    1.8501   14.4719 H   0  0  0  0  0  0  0  0  0  0  0  0
   19.9037    0.6235   13.3373 H   0  0  0  0  0  0  0  0  0  0  0  0
   17.5372    0.1737   15.1123 H   0  0  0  0  0  0  0  0  0  0  0  0
   17.9835   -3.0522   15.9944 H   0  0  0  0  0  0  0  0  0  0  0  0
   18.3101   -0.4869   17.6797 H   0  0  0  0  0  0  0  0  0  0  0  0
   19.4379   -1.8338   17.6843 H   0  0  0  0  0  0  0  0  0  0  0  0
   17.8107   -2.0808   18.2991 H   0  0  0  0  0  0  0  0  0  0  0  0
   16.4008   -1.7963   14.8245 H   0  0  0  0  0  0  0  0  0  0  0  0
   15.9712   -2.8391   17.2957 H   0  0  0  0  0  0  0  0  0  0  0  0
   14.4321   -1.2101   18.3671 H   0  0  0  0  0  0  0  0  0  0  0  0
   16.0348   -0.5341   18.2460 H   0  0  0  0  0  0  0  0  0  0  0  0
   14.8078   -0.0013   17.1141 H   0  0  0  0  0  0  0  0  0  0  0  0
   14.9215   -3.3511   15.2416 H   0  0  0  0  0  0  0  0  0  0  0  0
   13.5624   -0.6632   15.3774 H   0  0  0  0  0  0  0  0  0  0  0  0
   14.1563   -1.5530   13.9789 H   0  0  0  0  0  0  0  0  0  0  0  0
   11.5247   -1.5908   14.5912 H   0  0  0  0  0  0  0  0  0  0  0  0
   12.3007   -3.0451   13.9929 H   0  0  0  0  0  0  0  0  0  0  0  0
   11.6028   -2.3578   16.7141 H   0  0  0  0  0  0  0  0  0  0  0  0
   13.5102   -4.4451   16.5626 H   0  0  0  0  0  0  0  0  0  0  0  0
   13.3856   -3.1439   17.7279 H   0  0  0  0  0  0  0  0  0  0  0  0
  1  2  1  0
  2  3  1  0
  3  4  2  0
  3  5  1  0
  5  6  1  0
  5  7  1  0
  7  8  1  0
  8  9  1  0
  8 10  1  0
 10 11  1  0
 11 12  1  0
 12 13  1  0
 13 14  1  0
 14 10  1  0
  1 15  1  0
  1 16  1  0
  1 17  1  0
  2 18  1  0
  5 19  1  0
  6 20  1  0
  6 21  1  0
  6 22  1  0
  7 23  1  0
  8 24  1  0
  9 25  1  0
  9 26  1  0
  9 27  1  0
 10 28  1  0
 11 29  1  0
 11 30  1  0
 12 31  1  0
 12 32  1  0
 13 33  1  0
 14 34  1  0
 14 35  1  0
M  END
>  <Energy>  (618) 
46.463658038456572

>  <compound_id>  (618) 
54724

>  <target_id>  (618) 
1

>  <reference_id>  (618) 
76

>  <inspiration_ids>  (618) 
[124, 76]

>  <energy_score>  (618) 
-6.142328291698632

>  <distance_score>  (618) 
2.178430796733705

>  <path>  (618) 
/opt/xchem-fragalysis-2/maxwin/BulkDock/SCRATCH/511024/C54724-P76/C54724-P76.minimised.mol

>  <scratch_subdir>  (618) 
/opt/xchem-fragalysis-2/maxwin/BulkDock/SCRATCH/511024/C54724-P76

>  <fragmenstein_runtime>  (618) 
8.685123920440674

>  <fragmenstein_outcome>  (618) 
too moved

>  <fragmenstein_mode>  (618) 
expansion

>  <fragmenstein_error>  (618) 


$$$$
C54727-P124
     RDKit          3D

 41 41  0  0  0  0  0  0  0  0999 V2000
   17.4927    0.1449   17.5104 C   0  0  0  0  0  0  0  0  0  0  0  0
   16.3567    1.0989   17.8702 C   0  0  0  0  0  0  0  0  0  0  0  0
   16.8848    2.5356   17.9209 C   0  0  0  0  0  0  0  0  0  0  0  0
   15.8612    0.7264   19.2957 C   0  0  0  0  0  0  0  0  0  0  0  0
   15.1424    1.0343   16.9252 C   0  0  0  0  0  0  0  0  0  0  0  0
   15.1275    0.9511   15.3806 C   0  0  0  0  0  0  0  0  0  0  0  0
   15.6766    2.2265   14.6947 C   0  0  0  0  0  0  0  0  0  0  0  0
   15.4005    2.1928   13.2901 O   0  0  0  0  0  0  0  0  0  0  0  0
   15.6991   -0.2024   14.6699 N   0  0  0  0  0  0  0  0  0  0  0  0
   15.5602   -1.5669   15.1807 C   0  0  0  0  0  0  0  0  0  0  0  0
   14.2272   -2.0400   15.7652 C   0  0  0  0  0  0  0  0  0  0  0  0
   13.0494   -1.9991   14.8091 C   0  0  0  0  0  0  0  0  0  0  0  0
   12.0383   -2.9413   15.4412 C   0  0  0  0  0  0  0  0  0  0  0  0
   12.8178   -3.7482   16.4742 C   0  0  0  0  0  0  0  0  0  0  0  0
   14.2351   -3.4080   16.3121 N   0  0  0  0  0  0  0  0  0  0  0  0
   17.1907   -0.8988   17.6284 H   0  0  0  0  0  0  0  0  0  0  0  0
   17.8471    0.3030   16.4878 H   0  0  0  0  0  0  0  0  0  0  0  0
   18.3538    0.2953   18.1730 H   0  0  0  0  0  0  0  0  0  0  0  0
   17.3061    2.8455   16.9605 H   0  0  0  0  0  0  0  0  0  0  0  0
   16.0978    3.2494   18.1895 H   0  0  0  0  0  0  0  0  0  0  0  0
   17.6816    2.6371   18.6673 H   0  0  0  0  0  0  0  0  0  0  0  0
   15.0516    1.3909   19.6187 H   0  0  0  0  0  0  0  0  0  0  0  0
   16.6718    0.8088   20.0288 H   0  0  0  0  0  0  0  0  0  0  0  0
   15.4858   -0.3029   19.3319 H   0  0  0  0  0  0  0  0  0  0  0  0
   14.5288    1.9142   17.1650 H   0  0  0  0  0  0  0  0  0  0  0  0
   14.5681    0.1932   17.2892 H   0  0  0  0  0  0  0  0  0  0  0  0
   14.0623    0.9228   15.1124 H   0  0  0  0  0  0  0  0  0  0  0  0
   15.2087    3.1267   15.1044 H   0  0  0  0  0  0  0  0  0  0  0  0
   16.7610    2.3086   14.8161 H   0  0  0  0  0  0  0  0  0  0  0  0
   15.3399    1.2421   13.0654 H   0  0  0  0  0  0  0  0  0  0  0  0
   16.6912   -0.0380   14.4869 H   0  0  0  0  0  0  0  0  0  0  0  0
   16.3407   -1.7445   15.9236 H   0  0  0  0  0  0  0  0  0  0  0  0
   15.8196   -2.2336   14.3475 H   0  0  0  0  0  0  0  0  0  0  0  0
   14.0265   -1.4416   16.6352 H   0  0  0  0  0  0  0  0  0  0  0  0
   12.6389   -0.9927   14.6929 H   0  0  0  0  0  0  0  0  0  0  0  0
   13.3255   -2.3500   13.8094 H   0  0  0  0  0  0  0  0  0  0  0  0
   11.2369   -2.3752   15.9234 H   0  0  0  0  0  0  0  0  0  0  0  0
   11.5700   -3.5683   14.6785 H   0  0  0  0  0  0  0  0  0  0  0  0
   12.6440   -4.8217   16.3871 H   0  0  0  0  0  0  0  0  0  0  0  0
   12.5158   -3.4660   17.4833 H   0  0  0  0  0  0  0  0  0  0  0  0
   14.6671   -4.0434   15.6449 H   0  0  0  0  0  0  0  0  0  0  0  0
  1  2  1  0
  2  3  1  0
  2  4  1  0
  2  5  1  0
  5  6  1  0
  6  7  1  0
  7  8  1  0
  6  9  1  0
  9 10  1  0
 10 11  1  0
 11 12  1  0
 12 13  1  0
 13 14  1  0
 14 15  1  0
 15 11  1  0
  1 16  1  0
  1 17  1  0
  1 18  1  0
  3 19  1  0
  3 20  1  0
  3 21  1  0
  4 22  1  0
  4 23  1  0
  4 24  1  0
  5 25  1  0
  5 26  1  0
  6 27  1  0
  7 28  1  0
  7 29  1  0
  8 30  1  0
  9 31  1  0
 10 32  1  0
 10 33  1  0
 11 34  1  0
 12 35  1  0
 12 36  1  0
 13 37  1  0
 13 38  1  0
 14 39  1  0
 14 40  1  0
 15 41  1  0
M  END
>  <Energy>  (619) 
73.260763422805766

>  <compound_id>  (619) 
54727

>  <target_id>  (619) 
1

>  <reference_id>  (619) 
124

>  <inspiration_ids>  (619) 
[124, 76]

>  <energy_score>  (619) 
-29.34322640040324

>  <distance_score>  (619) 
1.2577197303675751

>  <path>  (619) 
/opt/xchem-fragalysis-2/maxwin/BulkDock/SCRATCH/511024/C54727-P124/C54727-P124.minimised.mol

>  <scratch_subdir>  (619) 
/opt/xchem-fragalysis-2/maxwin/BulkDock/SCRATCH/511024/C54727-P124

>  <fragmenstein_runtime>  (619) 
4.005455732345581

>  <fragmenstein_outcome>  (619) 
too moved

>  <fragmenstein_mode>  (619) 
expansion

>  <fragmenstein_error>  (619) 


$$$$
C54727-P76
     RDKit          3D

 41 41  0  0  0  0  0  0  0  0999 V2000
   17.4832    0.1676   17.5366 C   0  0  0  0  0  0  0  0  0  0  0  0
   16.3472    1.1257   17.8857 C   0  0  0  0  0  0  0  0  0  0  0  0
   16.8797    2.5606   17.9345 C   0  0  0  0  0  0  0  0  0  0  0  0
   15.8428    0.7585   19.3095 C   0  0  0  0  0  0  0  0  0  0  0  0
   15.1374    1.0640   16.9343 C   0  0  0  0  0  0  0  0  0  0  0  0
   15.1326    0.9678   15.3901 C   0  0  0  0  0  0  0  0  0  0  0  0
   15.6781    2.2420   14.6987 C   0  0  0  0  0  0  0  0  0  0  0  0
   15.4112    2.1979   13.2926 O   0  0  0  0  0  0  0  0  0  0  0  0
   15.7144   -0.1864   14.6890 N   0  0  0  0  0  0  0  0  0  0  0  0
   15.5838   -1.5490   15.2064 C   0  0  0  0  0  0  0  0  0  0  0  0
   14.2568   -2.0237   15.8018 C   0  0  0  0  0  0  0  0  0  0  0  0
   13.0781   -1.9992   14.8471 C   0  0  0  0  0  0  0  0  0  0  0  0
   12.0746   -2.9402   15.4913 C   0  0  0  0  0  0  0  0  0  0  0  0
   12.8603   -3.7337   16.5314 C   0  0  0  0  0  0  0  0  0  0  0  0
   14.2746   -3.3841   16.3670 N   0  0  0  0  0  0  0  0  0  0  0  0
   17.1788   -0.8748   17.6603 H   0  0  0  0  0  0  0  0  0  0  0  0
   17.8434    0.3194   16.5152 H   0  0  0  0  0  0  0  0  0  0  0  0
   18.3413    0.3203   18.2027 H   0  0  0  0  0  0  0  0  0  0  0  0
   17.3054    2.8664   16.9747 H   0  0  0  0  0  0  0  0  0  0  0  0
   16.0940    3.2778   18.1980 H   0  0  0  0  0  0  0  0  0  0  0  0
   17.6739    2.6619   18.6837 H   0  0  0  0  0  0  0  0  0  0  0  0
   15.0329    1.4259   19.6259 H   0  0  0  0  0  0  0  0  0  0  0  0
   16.6494    0.8412   20.0470 H   0  0  0  0  0  0  0  0  0  0  0  0
   15.4646   -0.2697   19.3465 H   0  0  0  0  0  0  0  0  0  0  0  0
   14.5256    1.9479   17.1647 H   0  0  0  0  0  0  0  0  0  0  0  0
   14.5548    0.2310   17.3015 H   0  0  0  0  0  0  0  0  0  0  0  0
   14.0693    0.9321   15.1158 H   0  0  0  0  0  0  0  0  0  0  0  0
   15.2021    3.1422   15.0995 H   0  0  0  0  0  0  0  0  0  0  0  0
   16.7611    2.3317   14.8266 H   0  0  0  0  0  0  0  0  0  0  0  0
   15.3456    1.2457   13.0758 H   0  0  0  0  0  0  0  0  0  0  0  0
   16.7051   -0.0159   14.5052 H   0  0  0  0  0  0  0  0  0  0  0  0
   16.3706   -1.7214   15.9436 H   0  0  0  0  0  0  0  0  0  0  0  0
   15.8399   -2.2185   14.3744 H   0  0  0  0  0  0  0  0  0  0  0  0
   14.0530   -1.4175   16.6655 H   0  0  0  0  0  0  0  0  0  0  0  0
   12.6628   -0.9967   14.7210 H   0  0  0  0  0  0  0  0  0  0  0  0
   13.3532   -2.3550   13.8491 H   0  0  0  0  0  0  0  0  0  0  0  0
   11.2738   -2.3703   15.9679 H   0  0  0  0  0  0  0  0  0  0  0  0
   11.6040   -3.5746   14.7367 H   0  0  0  0  0  0  0  0  0  0  0  0
   12.6959   -4.8102   16.4570 H   0  0  0  0  0  0  0  0  0  0  0  0
   12.5584   -3.4436   17.5384 H   0  0  0  0  0  0  0  0  0  0  0  0
   14.7219   -4.0251   15.7156 H   0  0  0  0  0  0  0  0  0  0  0  0
  1  2  1  0
  2  3  1  0
  2  4  1  0
  2  5  1  0
  5  6  1  0
  6  7  1  0
  7  8  1  0
  6  9  1  0
  9 10  1  0
 10 11  1  0
 11 12  1  0
 12 13  1  0
 13 14  1  0
 14 15  1  0
 15 11  1  0
  1 16  1  0
  1 17  1  0
  1 18  1  0
  3 19  1  0
  3 20  1  0
  3 21  1  0
  4 22  1  0
  4 23  1  0
  4 24  1  0
  5 25  1  0
  5 26  1  0
  6 27  1  0
  7 28  1  0
  7 29  1  0
  8 30  1  0
  9 31  1  0
 10 32  1  0
 10 33  1  0
 11 34  1  0
 12 35  1  0
 12 36  1  0
 13 37  1  0
 13 38  1  0
 14 39  1  0
 14 40  1  0
 15 41  1  0
M  END
>  <Energy>  (620) 
73.72907665333085

>  <compound_id>  (620) 
54727

>  <target_id>  (620) 
1

>  <reference_id>  (620) 
76

>  <inspiration_ids>  (620) 
[124, 76]

>  <energy_score>  (620) 
-28.874913169878596

>  <distance_score>  (620) 
1.2612628235547239

>  <path>  (620) 
/opt/xchem-fragalysis-2/maxwin/BulkDock/SCRATCH/511024/C54727-P76/C54727-P76.minimised.mol

>  <scratch_subdir>  (620) 
/opt/xchem-fragalysis-2/maxwin/BulkDock/SCRATCH/511024/C54727-P76

>  <fragmenstein_runtime>  (620) 
3.918759822845459

>  <fragmenstein_outcome>  (620) 
too moved

>  <fragmenstein_mode>  (620) 
expansion

>  <fragmenstein_error>  (620) 


$$$$
C54728-P124
     RDKit          3D

 35 35  0  0  0  0  0  0  0  0999 V2000
   15.3992    0.5766   18.5158 C   0  0  0  0  0  0  0  0  0  0  0  0
   15.9553   -0.0377   17.2397 C   0  0  0  0  0  0  0  0  0  0  0  0
   15.1489    0.2581   16.0253 N   0  0  0  0  0  0  0  0  0  0  0  0
   15.4020   -0.8108   15.0348 C   0  0  0  0  0  0  0  0  0  0  0  0
   14.5088   -2.0799   15.1880 C   0  0  0  0  0  0  0  0  0  0  0  0
   13.0904   -1.8627   14.6577 C   0  0  0  0  0  0  0  0  0  0  0  0
   12.2003   -2.8098   15.4482 C   0  0  0  0  0  0  0  0  0  0  0  0
   13.1177   -3.4842   16.4499 C   0  0  0  0  0  0  0  0  0  0  0  0
   14.3027   -2.6292   16.5444 N   0  0  0  0  0  0  0  0  0  0  0  0
   15.3361    1.6664   15.5248 C   0  0  0  0  0  0  0  0  0  0  0  0
   16.6243    2.3807   15.9756 C   0  0  0  0  0  0  0  0  0  0  0  0
   15.2252    1.9488   13.9938 C   0  0  0  0  0  0  0  0  0  0  0  0
   13.9893    1.5559   13.4185 O   0  0  0  0  0  0  0  0  0  0  0  0
   16.1473    0.5171   19.3134 H   0  0  0  0  0  0  0  0  0  0  0  0
   14.5249    0.0179   18.8545 H   0  0  0  0  0  0  0  0  0  0  0  0
   15.1170    1.6263   18.4014 H   0  0  0  0  0  0  0  0  0  0  0  0
   16.0240   -1.1128   17.4324 H   0  0  0  0  0  0  0  0  0  0  0  0
   17.0048    0.2474   17.1043 H   0  0  0  0  0  0  0  0  0  0  0  0
   15.2394   -0.4781   14.0078 H   0  0  0  0  0  0  0  0  0  0  0  0
   16.4601   -1.1056   15.0706 H   0  0  0  0  0  0  0  0  0  0  0  0
   15.0126   -2.8506   14.5999 H   0  0  0  0  0  0  0  0  0  0  0  0
   12.7549   -0.8322   14.8045 H   0  0  0  0  0  0  0  0  0  0  0  0
   13.0344   -2.0710   13.5838 H   0  0  0  0  0  0  0  0  0  0  0  0
   11.6994   -3.5288   14.7957 H   0  0  0  0  0  0  0  0  0  0  0  0
   11.4132   -2.2450   15.9544 H   0  0  0  0  0  0  0  0  0  0  0  0
   12.6439   -3.6144   17.4250 H   0  0  0  0  0  0  0  0  0  0  0  0
   13.4164   -4.4768   16.1101 H   0  0  0  0  0  0  0  0  0  0  0  0
   14.0917   -1.8389   17.1489 H   0  0  0  0  0  0  0  0  0  0  0  0
   14.5040    2.2150   15.9869 H   0  0  0  0  0  0  0  0  0  0  0  0
   16.6547    3.4067   15.5895 H   0  0  0  0  0  0  0  0  0  0  0  0
   16.7054    2.4784   17.0609 H   0  0  0  0  0  0  0  0  0  0  0  0
   17.5152    1.8668   15.5977 H   0  0  0  0  0  0  0  0  0  0  0  0
   16.0387    1.4694   13.4385 H   0  0  0  0  0  0  0  0  0  0  0  0
   15.3128    3.0260   13.8116 H   0  0  0  0  0  0  0  0  0  0  0  0
   13.3359    1.4610   14.1390 H   0  0  0  0  0  0  0  0  0  0  0  0
  1  2  1  0
  2  3  1  0
  3  4  1  0
  4  5  1  0
  5  6  1  0
  6  7  1  0
  7  8  1  0
  8  9  1  0
  3 10  1  0
 10 11  1  0
 10 12  1  0
 12 13  1  0
  9  5  1  0
  1 14  1  0
  1 15  1  0
  1 16  1  0
  2 17  1  0
  2 18  1  0
  4 19  1  0
  4 20  1  0
  5 21  1  0
  6 22  1  0
  6 23  1  0
  7 24  1  0
  7 25  1  0
  8 26  1  0
  8 27  1  0
  9 28  1  0
 10 29  1  0
 11 30  1  0
 11 31  1  0
 11 32  1  0
 12 33  1  0
 12 34  1  0
 13 35  1  0
M  END
>  <Energy>  (621) 
64.772759752508577

>  <compound_id>  (621) 
54728

>  <target_id>  (621) 
1

>  <reference_id>  (621) 
124

>  <inspiration_ids>  (621) 
[124, 76]

>  <energy_score>  (621) 
-21.31947372172499

>  <distance_score>  (621) 
1.0024215081943948

>  <path>  (621) 
/opt/xchem-fragalysis-2/maxwin/BulkDock/SCRATCH/511024/C54728-P124/C54728-P124.minimised.mol

>  <scratch_subdir>  (621) 
/opt/xchem-fragalysis-2/maxwin/BulkDock/SCRATCH/511024/C54728-P124

>  <fragmenstein_runtime>  (621) 
1.1699542999267578

>  <fragmenstein_outcome>  (621) 
too moved

>  <fragmenstein_mode>  (621) 
expansion

>  <fragmenstein_error>  (621) 


$$$$
C54728-P76
     RDKit          3D

 35 35  0  0  0  0  0  0  0  0999 V2000
   15.3773    0.6408   18.5288 C   0  0  0  0  0  0  0  0  0  0  0  0
   15.9464    0.0043   17.2695 C   0  0  0  0  0  0  0  0  0  0  0  0
   15.1522    0.2792   16.0417 N   0  0  0  0  0  0  0  0  0  0  0  0
   15.4254   -0.8002   15.0680 C   0  0  0  0  0  0  0  0  0  0  0  0
   14.5438   -2.0762   15.2315 C   0  0  0  0  0  0  0  0  0  0  0  0
   13.1306   -1.8820   14.6783 C   0  0  0  0  0  0  0  0  0  0  0  0
   12.2341   -2.8064   15.4884 C   0  0  0  0  0  0  0  0  0  0  0  0
   13.1458   -3.4657   16.5054 C   0  0  0  0  0  0  0  0  0  0  0  0
   14.3249   -2.6035   16.5945 N   0  0  0  0  0  0  0  0  0  0  0  0
   15.3413    1.6814   15.5253 C   0  0  0  0  0  0  0  0  0  0  0  0
   16.6357    2.3936   15.9606 C   0  0  0  0  0  0  0  0  0  0  0  0
   15.2224    1.9464   13.9922 C   0  0  0  0  0  0  0  0  0  0  0  0
   13.9848    1.5461   13.4266 O   0  0  0  0  0  0  0  0  0  0  0  0
   16.1133    0.5853   19.3379 H   0  0  0  0  0  0  0  0  0  0  0  0
   14.4920    0.0969   18.8633 H   0  0  0  0  0  0  0  0  0  0  0  0
   15.1083    1.6918   18.3955 H   0  0  0  0  0  0  0  0  0  0  0  0
   16.0147   -1.0669   17.4819 H   0  0  0  0  0  0  0  0  0  0  0  0
   16.9972    0.2875   17.1403 H   0  0  0  0  0  0  0  0  0  0  0  0
   15.2679   -0.4824   14.0353 H   0  0  0  0  0  0  0  0  0  0  0  0
   16.4861   -1.0833   15.1173 H   0  0  0  0  0  0  0  0  0  0  0  0
   15.0650   -2.8516   14.6645 H   0  0  0  0  0  0  0  0  0  0  0  0
   12.7904   -0.8493   14.7881 H   0  0  0  0  0  0  0  0  0  0  0  0
   13.0870   -2.1236   13.6107 H   0  0  0  0  0  0  0  0  0  0  0  0
   11.7238   -3.5331   14.8525 H   0  0  0  0  0  0  0  0  0  0  0  0
   11.4535   -2.2232   15.9821 H   0  0  0  0  0  0  0  0  0  0  0  0
   12.6666   -3.5808   17.4796 H   0  0  0  0  0  0  0  0  0  0  0  0
   13.4513   -4.4641   16.1873 H   0  0  0  0  0  0  0  0  0  0  0  0
   14.1040   -1.8039   17.1830 H   0  0  0  0  0  0  0  0  0  0  0  0
   14.5141    2.2388   15.9856 H   0  0  0  0  0  0  0  0  0  0  0  0
   16.6726    3.4131   15.5579 H   0  0  0  0  0  0  0  0  0  0  0  0
   16.7202    2.5081   17.0441 H   0  0  0  0  0  0  0  0  0  0  0  0
   17.5219    1.8671   15.5888 H   0  0  0  0  0  0  0  0  0  0  0  0
   16.0340    1.4625   13.4379 H   0  0  0  0  0  0  0  0  0  0  0  0
   15.3080    3.0217   13.7979 H   0  0  0  0  0  0  0  0  0  0  0  0
   13.3464    1.4103   14.1545 H   0  0  0  0  0  0  0  0  0  0  0  0
  1  2  1  0
  2  3  1  0
  3  4  1  0
  4  5  1  0
  5  6  1  0
  6  7  1  0
  7  8  1  0
  8  9  1  0
  3 10  1  0
 10 11  1  0
 10 12  1  0
 12 13  1  0
  9  5  1  0
  1 14  1  0
  1 15  1  0
  1 16  1  0
  2 17  1  0
  2 18  1  0
  4 19  1  0
  4 20  1  0
  5 21  1  0
  6 22  1  0
  6 23  1  0
  7 24  1  0
  7 25  1  0
  8 26  1  0
  8 27  1  0
  9 28  1  0
 10 29  1  0
 11 30  1  0
 11 31  1  0
 11 32  1  0
 12 33  1  0
 12 34  1  0
 13 35  1  0
M  END
>  <Energy>  (622) 
64.546734769194842

>  <compound_id>  (622) 
54728

>  <target_id>  (622) 
1

>  <reference_id>  (622) 
76

>  <inspiration_ids>  (622) 
[124, 76]

>  <energy_score>  (622) 
-21.545498705038995

>  <distance_score>  (622) 
1.0168394731452355

>  <path>  (622) 
/opt/xchem-fragalysis-2/maxwin/BulkDock/SCRATCH/511024/C54728-P76/C54728-P76.minimised.mol

>  <scratch_subdir>  (622) 
/opt/xchem-fragalysis-2/maxwin/BulkDock/SCRATCH/511024/C54728-P76

>  <fragmenstein_runtime>  (622) 
1.3726556301116943

>  <fragmenstein_outcome>  (622) 
too moved

>  <fragmenstein_mode>  (622) 
expansion

>  <fragmenstein_error>  (622) 


$$$$
C54729-P124
     RDKit          3D

 41 41  0  0  0  0  0  0  0  0999 V2000
   17.5770    0.8694   13.9348 C   0  0  0  0  0  0  0  0  0  0  0  0
   17.2973    1.6896   15.1858 C   0  0  0  0  0  0  0  0  0  0  0  0
   15.8237    1.8648   15.5958 C   0  0  0  0  0  0  0  0  0  0  0  0
   15.3923    0.9077   16.6529 N   0  0  0  0  0  0  0  0  0  0  0  0
   15.5912   -0.5353   16.4315 C   0  0  0  0  0  0  0  0  0  0  0  0
   15.5852   -1.2816   17.7627 C   0  0  0  0  0  0  0  0  0  0  0  0
   14.5163   -0.9486   15.4414 C   0  0  0  0  0  0  0  0  0  0  0  0
   14.1601   -2.3923   15.1998 C   0  0  0  0  0  0  0  0  0  0  0  0
   13.2700   -3.1016   16.2103 C   0  0  0  0  0  0  0  0  0  0  0  0
   11.8515   -2.9693   15.6858 C   0  0  0  0  0  0  0  0  0  0  0  0
   11.9475   -2.3328   14.3218 C   0  0  0  0  0  0  0  0  0  0  0  0
   13.3483   -2.3903   13.9655 N   0  0  0  0  0  0  0  0  0  0  0  0
   14.8564    2.3887   14.4661 C   0  0  0  0  0  0  0  0  0  0  0  0
   14.2291    1.4706   13.4329 C   0  0  0  0  0  0  0  0  0  0  0  0
   15.5279    3.3945   13.6867 O   0  0  0  0  0  0  0  0  0  0  0  0
   17.2186    1.3793   13.0364 H   0  0  0  0  0  0  0  0  0  0  0  0
   17.1287   -0.1245   13.9709 H   0  0  0  0  0  0  0  0  0  0  0  0
   18.6581    0.7382   13.8160 H   0  0  0  0  0  0  0  0  0  0  0  0
   17.7374    2.6842   15.0280 H   0  0  0  0  0  0  0  0  0  0  0  0
   17.8713    1.2670   16.0211 H   0  0  0  0  0  0  0  0  0  0  0  0
   15.8942    2.7806   16.2081 H   0  0  0  0  0  0  0  0  0  0  0  0
   15.9040    1.1574   17.5023 H   0  0  0  0  0  0  0  0  0  0  0  0
   16.5791   -0.7313   16.0046 H   0  0  0  0  0  0  0  0  0  0  0  0
   14.6506   -1.1323   18.3108 H   0  0  0  0  0  0  0  0  0  0  0  0
   15.7348   -2.3555   17.6132 H   0  0  0  0  0  0  0  0  0  0  0  0
   16.4004   -0.9302   18.4059 H   0  0  0  0  0  0  0  0  0  0  0  0
   14.9233   -0.6053   14.4881 H   0  0  0  0  0  0  0  0  0  0  0  0
   13.6011   -0.3780   15.6083 H   0  0  0  0  0  0  0  0  0  0  0  0
   15.0900   -2.9514   15.0475 H   0  0  0  0  0  0  0  0  0  0  0  0
   13.5316   -4.1652   16.2540 H   0  0  0  0  0  0  0  0  0  0  0  0
   13.3595   -2.7203   17.2268 H   0  0  0  0  0  0  0  0  0  0  0  0
   11.2529   -2.3309   16.3278 H   0  0  0  0  0  0  0  0  0  0  0  0
   11.3620   -3.9450   15.6480 H   0  0  0  0  0  0  0  0  0  0  0  0
   11.5968   -1.2966   14.3470 H   0  0  0  0  0  0  0  0  0  0  0  0
   11.3491   -2.8822   13.5941 H   0  0  0  0  0  0  0  0  0  0  0  0
   13.5954   -1.6539   13.3081 H   0  0  0  0  0  0  0  0  0  0  0  0
   14.0235    2.8995   14.9680 H   0  0  0  0  0  0  0  0  0  0  0  0
   13.4351    0.8555   13.8555 H   0  0  0  0  0  0  0  0  0  0  0  0
   13.7592    2.0659   12.6393 H   0  0  0  0  0  0  0  0  0  0  0  0
   14.9673    0.8447   12.9266 H   0  0  0  0  0  0  0  0  0  0  0  0
   15.6977    4.1477   14.2780 H   0  0  0  0  0  0  0  0  0  0  0  0
  1  2  1  0
  2  3  1  0
  3  4  1  0
  4  5  1  0
  5  6  1  0
  5  7  1  0
  7  8  1  0
  8  9  1  0
  9 10  1  0
 10 11  1  0
 11 12  1  0
  3 13  1  0
 13 14  1  0
 13 15  1  0
 12  8  1  0
  1 16  1  0
  1 17  1  0
  1 18  1  0
  2 19  1  0
  2 20  1  0
  3 21  1  0
  4 22  1  0
  5 23  1  0
  6 24  1  0
  6 25  1  0
  6 26  1  0
  7 27  1  0
  7 28  1  0
  8 29  1  0
  9 30  1  0
  9 31  1  0
 10 32  1  0
 10 33  1  0
 11 34  1  0
 11 35  1  0
 12 36  1  0
 13 37  1  0
 14 38  1  0
 14 39  1  0
 14 40  1  0
 15 41  1  0
M  END
>  <Energy>  (623) 
60.138324555239976

>  <compound_id>  (623) 
54729

>  <target_id>  (623) 
1

>  <reference_id>  (623) 
124

>  <inspiration_ids>  (623) 
[124, 76]

>  <energy_score>  (623) 
-24.514130946863816

>  <distance_score>  (623) 
1.720034395149131

>  <path>  (623) 
/opt/xchem-fragalysis-2/maxwin/BulkDock/SCRATCH/511024/C54729-P124/C54729-P124.minimised.mol

>  <scratch_subdir>  (623) 
/opt/xchem-fragalysis-2/maxwin/BulkDock/SCRATCH/511024/C54729-P124

>  <fragmenstein_runtime>  (623) 
2.061373233795166

>  <fragmenstein_outcome>  (623) 
too moved

>  <fragmenstein_mode>  (623) 
expansion

>  <fragmenstein_error>  (623) 


$$$$
C54729-P76
     RDKit          3D

 41 41  0  0  0  0  0  0  0  0999 V2000
   16.7026    3.5363   17.2334 C   0  0  0  0  0  0  0  0  0  0  0  0
   15.5212    3.1746   16.3372 C   0  0  0  0  0  0  0  0  0  0  0  0
   15.5599    1.8187   15.5971 C   0  0  0  0  0  0  0  0  0  0  0  0
   15.9686    0.7868   16.5696 N   0  0  0  0  0  0  0  0  0  0  0  0
   15.8341   -0.6178   16.1749 C   0  0  0  0  0  0  0  0  0  0  0  0
   15.9810   -1.4668   17.4380 C   0  0  0  0  0  0  0  0  0  0  0  0
   14.5422   -0.8532   15.3786 C   0  0  0  0  0  0  0  0  0  0  0  0
   14.1859   -2.2879   15.0755 C   0  0  0  0  0  0  0  0  0  0  0  0
   13.3671   -3.0185   16.1362 C   0  0  0  0  0  0  0  0  0  0  0  0
   11.9265   -2.9351   15.6706 C   0  0  0  0  0  0  0  0  0  0  0  0
   11.9452   -2.3304   14.2881 C   0  0  0  0  0  0  0  0  0  0  0  0
   13.3309   -2.2977   13.8798 N   0  0  0  0  0  0  0  0  0  0  0  0
   16.3285    1.8437   14.2347 C   0  0  0  0  0  0  0  0  0  0  0  0
   17.7516    2.3784   14.2801 C   0  0  0  0  0  0  0  0  0  0  0  0
   15.5862    2.5775   13.2509 O   0  0  0  0  0  0  0  0  0  0  0  0
   17.6571    3.5109   16.7063 H   0  0  0  0  0  0  0  0  0  0  0  0
   16.7687    2.8682   18.0979 H   0  0  0  0  0  0  0  0  0  0  0  0
   16.5690    4.5512   17.6235 H   0  0  0  0  0  0  0  0  0  0  0  0
   15.3739    3.9849   15.6138 H   0  0  0  0  0  0  0  0  0  0  0  0
   14.6264    3.1871   16.9757 H   0  0  0  0  0  0  0  0  0  0  0  0
   14.5050    1.6616   15.3378 H   0  0  0  0  0  0  0  0  0  0  0  0
   16.9279    0.9530   16.8738 H   0  0  0  0  0  0  0  0  0  0  0  0
   16.6781   -0.8698   15.5195 H   0  0  0  0  0  0  0  0  0  0  0  0
   15.1630   -1.2808   18.1425 H   0  0  0  0  0  0  0  0  0  0  0  0
   15.9989   -2.5347   17.1999 H   0  0  0  0  0  0  0  0  0  0  0  0
   16.9221   -1.2421   17.9539 H   0  0  0  0  0  0  0  0  0  0  0  0
   14.6839   -0.3504   14.4139 H   0  0  0  0  0  0  0  0  0  0  0  0
   13.6998   -0.3380   15.8260 H   0  0  0  0  0  0  0  0  0  0  0  0
   15.1161   -2.8277   14.8656 H   0  0  0  0  0  0  0  0  0  0  0  0
   13.6681   -4.0707   16.1929 H   0  0  0  0  0  0  0  0  0  0  0  0
   13.4841   -2.6102   17.1417 H   0  0  0  0  0  0  0  0  0  0  0  0
   11.3484   -2.2889   16.3227 H   0  0  0  0  0  0  0  0  0  0  0  0
   11.4526   -3.9192   15.6856 H   0  0  0  0  0  0  0  0  0  0  0  0
   11.5244   -1.3211   14.2993 H   0  0  0  0  0  0  0  0  0  0  0  0
   11.3688   -2.9422   13.5929 H   0  0  0  0  0  0  0  0  0  0  0  0
   13.5121   -1.5324   13.2332 H   0  0  0  0  0  0  0  0  0  0  0  0
   16.3864    0.8256   13.8389 H   0  0  0  0  0  0  0  0  0  0  0  0
   18.3531    1.8665   15.0362 H   0  0  0  0  0  0  0  0  0  0  0  0
   18.2340    2.2341   13.3065 H   0  0  0  0  0  0  0  0  0  0  0  0
   17.7693    3.4574   14.4618 H   0  0  0  0  0  0  0  0  0  0  0  0
   15.5700    3.5120   13.5160 H   0  0  0  0  0  0  0  0  0  0  0  0
  1  2  1  0
  2  3  1  0
  3  4  1  0
  4  5  1  0
  5  6  1  0
  5  7  1  0
  7  8  1  0
  8  9  1  0
  9 10  1  0
 10 11  1  0
 11 12  1  0
  3 13  1  0
 13 14  1  0
 13 15  1  0
 12  8  1  0
  1 16  1  0
  1 17  1  0
  1 18  1  0
  2 19  1  0
  2 20  1  0
  3 21  1  0
  4 22  1  0
  5 23  1  0
  6 24  1  0
  6 25  1  0
  6 26  1  0
  7 27  1  0
  7 28  1  0
  8 29  1  0
  9 30  1  0
  9 31  1  0
 10 32  1  0
 10 33  1  0
 11 34  1  0
 11 35  1  0
 12 36  1  0
 13 37  1  0
 14 38  1  0
 14 39  1  0
 14 40  1  0
 15 41  1  0
M  END
>  <Energy>  (624) 
44.79854198909495

>  <compound_id>  (624) 
54729

>  <target_id>  (624) 
1

>  <reference_id>  (624) 
76

>  <inspiration_ids>  (624) 
[124, 76]

>  <energy_score>  (624) 
-39.853913513009104

>  <distance_score>  (624) 
1.596983631377914

>  <path>  (624) 
/opt/xchem-fragalysis-2/maxwin/BulkDock/SCRATCH/511024/C54729-P76/C54729-P76.minimised.mol

>  <scratch_subdir>  (624) 
/opt/xchem-fragalysis-2/maxwin/BulkDock/SCRATCH/511024/C54729-P76

>  <fragmenstein_runtime>  (624) 
2.059932231903076

>  <fragmenstein_outcome>  (624) 
too moved

>  <fragmenstein_mode>  (624) 
expansion

>  <fragmenstein_error>  (624) 


$$$$
C54730-P124
     RDKit          3D

 38 38  0  0  0  0  0  0  0  0999 V2000
   15.6039    1.1969   19.7374 C   0  0  0  0  0  0  0  0  0  0  0  0
   15.8917    0.9451   18.2699 C   0  0  0  0  0  0  0  0  0  0  0  0
   15.7048    2.2022   17.3963 C   0  0  0  0  0  0  0  0  0  0  0  0
   15.7792    1.8638   15.8951 C   0  0  0  0  0  0  0  0  0  0  0  0
   15.8312    3.0321   15.0623 O   0  0  0  0  0  0  0  0  0  0  0  0
   14.5403    1.0765   15.4609 C   0  0  0  0  0  0  0  0  0  0  0  0
   14.6897    0.4731   14.1418 N   0  0  0  0  0  0  0  0  0  0  0  0
   15.2079   -0.9074   14.1683 C   0  0  0  0  0  0  0  0  0  0  0  0
   16.6752   -1.0052   14.6021 C   0  0  0  0  0  0  0  0  0  0  0  0
   14.3580   -2.0136   14.8601 C   0  0  0  0  0  0  0  0  0  0  0  0
   12.8807   -2.0401   14.4660 C   0  0  0  0  0  0  0  0  0  0  0  0
   12.1976   -2.8625   15.5536 C   0  0  0  0  0  0  0  0  0  0  0  0
   13.3074   -3.2345   16.5217 C   0  0  0  0  0  0  0  0  0  0  0  0
   14.3098   -2.1762   16.3243 N   0  0  0  0  0  0  0  0  0  0  0  0
   15.7340    0.2770   20.3160 H   0  0  0  0  0  0  0  0  0  0  0  0
   16.2843    1.9526   20.1426 H   0  0  0  0  0  0  0  0  0  0  0  0
   14.5785    1.5497   19.8823 H   0  0  0  0  0  0  0  0  0  0  0  0
   16.9209    0.5831   18.1605 H   0  0  0  0  0  0  0  0  0  0  0  0
   15.2398    0.1303   17.9490 H   0  0  0  0  0  0  0  0  0  0  0  0
   14.7463    2.6881   17.6170 H   0  0  0  0  0  0  0  0  0  0  0  0
   16.4779    2.9406   17.6417 H   0  0  0  0  0  0  0  0  0  0  0  0
   16.7111    1.3244   15.7183 H   0  0  0  0  0  0  0  0  0  0  0  0
   15.6975    2.6911   14.1554 H   0  0  0  0  0  0  0  0  0  0  0  0
   14.2475    0.3296   16.1867 H   0  0  0  0  0  0  0  0  0  0  0  0
   13.7073    1.7867   15.3926 H   0  0  0  0  0  0  0  0  0  0  0  0
   13.7614    0.4514   13.7134 H   0  0  0  0  0  0  0  0  0  0  0  0
   15.2164   -1.1876   13.1045 H   0  0  0  0  0  0  0  0  0  0  0  0
   16.7978   -0.8648   15.6799 H   0  0  0  0  0  0  0  0  0  0  0  0
   17.0802   -1.9935   14.3553 H   0  0  0  0  0  0  0  0  0  0  0  0
   17.2918   -0.2682   14.0762 H   0  0  0  0  0  0  0  0  0  0  0  0
   14.8533   -2.9201   14.5152 H   0  0  0  0  0  0  0  0  0  0  0  0
   12.7348   -2.4831   13.4773 H   0  0  0  0  0  0  0  0  0  0  0  0
   12.4326   -1.0424   14.4471 H   0  0  0  0  0  0  0  0  0  0  0  0
   11.4334   -2.2545   16.0437 H   0  0  0  0  0  0  0  0  0  0  0  0
   11.6858   -3.7367   15.1500 H   0  0  0  0  0  0  0  0  0  0  0  0
   12.9636   -3.2848   17.5550 H   0  0  0  0  0  0  0  0  0  0  0  0
   13.7349   -4.2099   16.2681 H   0  0  0  0  0  0  0  0  0  0  0  0
   15.2175   -2.4804   16.6748 H   0  0  0  0  0  0  0  0  0  0  0  0
  1  2  1  0
  2  3  1  0
  3  4  1  0
  4  5  1  0
  4  6  1  0
  6  7  1  0
  7  8  1  0
  8  9  1  0
  8 10  1  0
 10 11  1  0
 11 12  1  0
 12 13  1  0
 13 14  1  0
 14 10  1  0
  1 15  1  0
  1 16  1  0
  1 17  1  0
  2 18  1  0
  2 19  1  0
  3 20  1  0
  3 21  1  0
  4 22  1  0
  5 23  1  0
  6 24  1  0
  6 25  1  0
  7 26  1  0
  8 27  1  0
  9 28  1  0
  9 29  1  0
  9 30  1  0
 10 31  1  0
 11 32  1  0
 11 33  1  0
 12 34  1  0
 12 35  1  0
 13 36  1  0
 13 37  1  0
 14 38  1  0
M  END
>  <Energy>  (625) 
55.569882761892238

>  <compound_id>  (625) 
54730

>  <target_id>  (625) 
1

>  <reference_id>  (625) 
124

>  <inspiration_ids>  (625) 
[124, 76]

>  <energy_score>  (625) 
-15.89573946452174

>  <distance_score>  (625) 
1.4997569255866314

>  <path>  (625) 
/opt/xchem-fragalysis-2/maxwin/BulkDock/SCRATCH/511024/C54730-P124/C54730-P124.minimised.mol

>  <scratch_subdir>  (625) 
/opt/xchem-fragalysis-2/maxwin/BulkDock/SCRATCH/511024/C54730-P124

>  <fragmenstein_runtime>  (625) 
1.3800463676452637

>  <fragmenstein_outcome>  (625) 
too moved

>  <fragmenstein_mode>  (625) 
expansion

>  <fragmenstein_error>  (625) 


$$$$
C54730-P76
     RDKit          3D

 38 38  0  0  0  0  0  0  0  0999 V2000
   15.3095    0.7121   19.1657 C   0  0  0  0  0  0  0  0  0  0  0  0
   16.4273    1.3718   18.3726 C   0  0  0  0  0  0  0  0  0  0  0  0
   15.9919    2.4533   17.3617 C   0  0  0  0  0  0  0  0  0  0  0  0
   15.9060    1.9505   15.9094 C   0  0  0  0  0  0  0  0  0  0  0  0
   15.8040    3.0305   14.9640 O   0  0  0  0  0  0  0  0  0  0  0  0
   14.6701    1.0798   15.7099 C   0  0  0  0  0  0  0  0  0  0  0  0
   14.5847    0.5417   14.3557 N   0  0  0  0  0  0  0  0  0  0  0  0
   15.1144   -0.8246   14.2162 C   0  0  0  0  0  0  0  0  0  0  0  0
   16.6071   -0.9406   14.5507 C   0  0  0  0  0  0  0  0  0  0  0  0
   14.3142   -1.9814   14.8787 C   0  0  0  0  0  0  0  0  0  0  0  0
   12.8424   -2.0610   14.4666 C   0  0  0  0  0  0  0  0  0  0  0  0
   12.1651   -2.8625   15.5716 C   0  0  0  0  0  0  0  0  0  0  0  0
   13.2775   -3.2261   16.5391 C   0  0  0  0  0  0  0  0  0  0  0  0
   14.2666   -2.1584   16.3408 N   0  0  0  0  0  0  0  0  0  0  0  0
   14.7175    0.0356   18.5501 H   0  0  0  0  0  0  0  0  0  0  0  0
   15.7326    0.1166   19.9816 H   0  0  0  0  0  0  0  0  0  0  0  0
   14.6467    1.4624   19.6068 H   0  0  0  0  0  0  0  0  0  0  0  0
   17.0845    1.8609   19.1036 H   0  0  0  0  0  0  0  0  0  0  0  0
   17.0378    0.6041   17.8839 H   0  0  0  0  0  0  0  0  0  0  0  0
   15.0517    2.9287   17.6661 H   0  0  0  0  0  0  0  0  0  0  0  0
   16.7403    3.2570   17.3803 H   0  0  0  0  0  0  0  0  0  0  0  0
   16.8330    1.4251   15.6699 H   0  0  0  0  0  0  0  0  0  0  0  0
   15.5116    2.5947   14.1369 H   0  0  0  0  0  0  0  0  0  0  0  0
   14.6086    0.2999   16.4603 H   0  0  0  0  0  0  0  0  0  0  0  0
   13.7983    1.7305   15.8353 H   0  0  0  0  0  0  0  0  0  0  0  0
   13.5952    0.5331   14.0946 H   0  0  0  0  0  0  0  0  0  0  0  0
   15.0515   -1.0175   13.1355 H   0  0  0  0  0  0  0  0  0  0  0  0
   16.7986   -0.8503   15.6242 H   0  0  0  0  0  0  0  0  0  0  0  0
   16.9963   -1.9140   14.2307 H   0  0  0  0  0  0  0  0  0  0  0  0
   17.1883   -0.1777   14.0215 H   0  0  0  0  0  0  0  0  0  0  0  0
   14.8482   -2.8601   14.5200 H   0  0  0  0  0  0  0  0  0  0  0  0
   12.7234   -2.5427   13.4911 H   0  0  0  0  0  0  0  0  0  0  0  0
   12.3638   -1.0810   14.3993 H   0  0  0  0  0  0  0  0  0  0  0  0
   11.4137   -2.2367   16.0574 H   0  0  0  0  0  0  0  0  0  0  0  0
   11.6376   -3.7362   15.1881 H   0  0  0  0  0  0  0  0  0  0  0  0
   12.9335   -3.2737   17.5729 H   0  0  0  0  0  0  0  0  0  0  0  0
   13.7145   -4.1991   16.2922 H   0  0  0  0  0  0  0  0  0  0  0  0
   15.1789   -2.4516   16.6891 H   0  0  0  0  0  0  0  0  0  0  0  0
  1  2  1  0
  2  3  1  0
  3  4  1  0
  4  5  1  0
  4  6  1  0
  6  7  1  0
  7  8  1  0
  8  9  1  0
  8 10  1  0
 10 11  1  0
 11 12  1  0
 12 13  1  0
 13 14  1  0
 14 10  1  0
  1 15  1  0
  1 16  1  0
  1 17  1  0
  2 18  1  0
  2 19  1  0
  3 20  1  0
  3 21  1  0
  4 22  1  0
  5 23  1  0
  6 24  1  0
  6 25  1  0
  7 26  1  0
  8 27  1  0
  9 28  1  0
  9 29  1  0
  9 30  1  0
 10 31  1  0
 11 32  1  0
 11 33  1  0
 12 34  1  0
 12 35  1  0
 13 36  1  0
 13 37  1  0
 14 38  1  0
M  END
>  <Energy>  (626) 
56.300439145073526

>  <compound_id>  (626) 
54730

>  <target_id>  (626) 
1

>  <reference_id>  (626) 
76

>  <inspiration_ids>  (626) 
[124, 76]

>  <energy_score>  (626) 
-15.165183081340786

>  <distance_score>  (626) 
1.5963064129817206

>  <path>  (626) 
/opt/xchem-fragalysis-2/maxwin/BulkDock/SCRATCH/511024/C54730-P76/C54730-P76.minimised.mol

>  <scratch_subdir>  (626) 
/opt/xchem-fragalysis-2/maxwin/BulkDock/SCRATCH/511024/C54730-P76

>  <fragmenstein_runtime>  (626) 
1.1766674518585205

>  <fragmenstein_outcome>  (626) 
too moved

>  <fragmenstein_mode>  (626) 
expansion

>  <fragmenstein_error>  (626) 


$$$$
C54732-P124
     RDKit          3D

 32 32  0  0  0  0  0  0  0  0999 V2000
   17.3238   -0.3518   15.0288 C   0  0  0  0  0  0  0  0  0  0  0  0
   15.8738   -0.2120   14.9462 N   0  0  0  0  0  0  0  0  0  0  0  0
   15.4353    1.1547   15.3037 C   0  0  0  0  0  0  0  0  0  0  0  0
   15.7413    2.2056   14.2208 C   0  0  0  0  0  0  0  0  0  0  0  0
   15.0410    1.9305   12.8932 C   0  0  0  0  0  0  0  0  0  0  0  0
   15.5673    0.7663   12.2673 O   0  0  0  0  0  0  0  0  0  0  0  0
   15.2925   -1.2402   15.8197 C   0  0  0  0  0  0  0  0  0  0  0  0
   13.8333   -1.5320   15.4675 C   0  0  0  0  0  0  0  0  0  0  0  0
   13.4666   -1.8422   14.0339 C   0  0  0  0  0  0  0  0  0  0  0  0
   12.1107   -2.5212   14.1898 C   0  0  0  0  0  0  0  0  0  0  0  0
   12.0290   -2.9916   15.6318 C   0  0  0  0  0  0  0  0  0  0  0  0
   13.3221   -2.6829   16.2391 N   0  0  0  0  0  0  0  0  0  0  0  0
   17.7020   -0.1802   16.0435 H   0  0  0  0  0  0  0  0  0  0  0  0
   17.6422   -1.3506   14.7069 H   0  0  0  0  0  0  0  0  0  0  0  0
   17.8323    0.3451   14.3552 H   0  0  0  0  0  0  0  0  0  0  0  0
   15.8905    1.4661   16.2528 H   0  0  0  0  0  0  0  0  0  0  0  0
   14.3519    1.1780   15.4613 H   0  0  0  0  0  0  0  0  0  0  0  0
   15.4074    3.1818   14.5930 H   0  0  0  0  0  0  0  0  0  0  0  0
   16.8222    2.2810   14.0608 H   0  0  0  0  0  0  0  0  0  0  0  0
   15.1883    2.7709   12.2083 H   0  0  0  0  0  0  0  0  0  0  0  0
   13.9641    1.7926   13.0346 H   0  0  0  0  0  0  0  0  0  0  0  0
   15.6369    0.0913   12.9765 H   0  0  0  0  0  0  0  0  0  0  0  0
   15.3869   -0.9618   16.8782 H   0  0  0  0  0  0  0  0  0  0  0  0
   15.8445   -2.1826   15.6944 H   0  0  0  0  0  0  0  0  0  0  0  0
   13.2688   -0.6304   15.6778 H   0  0  0  0  0  0  0  0  0  0  0  0
   13.3725   -0.9350   13.4266 H   0  0  0  0  0  0  0  0  0  0  0  0
   14.2131   -2.4672   13.5437 H   0  0  0  0  0  0  0  0  0  0  0  0
   11.9699   -3.3346   13.4775 H   0  0  0  0  0  0  0  0  0  0  0  0
   11.3242   -1.7826   14.0105 H   0  0  0  0  0  0  0  0  0  0  0  0
   11.2383   -2.4374   16.1403 H   0  0  0  0  0  0  0  0  0  0  0  0
   11.7858   -4.0501   15.7311 H   0  0  0  0  0  0  0  0  0  0  0  0
   13.9405   -3.4805   16.0762 H   0  0  0  0  0  0  0  0  0  0  0  0
  1  2  1  0
  2  3  1  0
  3  4  1  0
  4  5  1  0
  5  6  1  0
  2  7  1  0
  7  8  1  0
  8  9  1  0
  9 10  1  0
 10 11  1  0
 11 12  1  0
 12  8  1  0
  1 13  1  0
  1 14  1  0
  1 15  1  0
  3 16  1  0
  3 17  1  0
  4 18  1  0
  4 19  1  0
  5 20  1  0
  5 21  1  0
  6 22  1  0
  7 23  1  0
  7 24  1  0
  8 25  1  0
  9 26  1  0
  9 27  1  0
 10 28  1  0
 10 29  1  0
 11 30  1  0
 11 31  1  0
 12 32  1  0
M  END
>  <Energy>  (627) 
30.905090208459452

>  <compound_id>  (627) 
54732

>  <target_id>  (627) 
1

>  <reference_id>  (627) 
124

>  <inspiration_ids>  (627) 
[124, 76]

>  <energy_score>  (627) 
-34.64281363671189

>  <distance_score>  (627) 
1.5663707670010207

>  <path>  (627) 
/opt/xchem-fragalysis-2/maxwin/BulkDock/SCRATCH/511024/C54732-P124/C54732-P124.minimised.mol

>  <scratch_subdir>  (627) 
/opt/xchem-fragalysis-2/maxwin/BulkDock/SCRATCH/511024/C54732-P124

>  <fragmenstein_runtime>  (627) 
1.6516039371490479

>  <fragmenstein_outcome>  (627) 
too moved

>  <fragmenstein_mode>  (627) 
expansion

>  <fragmenstein_error>  (627) 


$$$$
C54732-P76
     RDKit          3D

 32 32  0  0  0  0  0  0  0  0999 V2000
   17.3369   -0.3386   15.0525 C   0  0  0  0  0  0  0  0  0  0  0  0
   15.8926   -0.1800   15.0119 N   0  0  0  0  0  0  0  0  0  0  0  0
   15.4656    1.1894   15.3460 C   0  0  0  0  0  0  0  0  0  0  0  0
   15.7799    2.2222   14.2553 C   0  0  0  0  0  0  0  0  0  0  0  0
   15.0888    1.9305   12.9300 C   0  0  0  0  0  0  0  0  0  0  0  0
   15.3559    2.9811   12.0054 O   0  0  0  0  0  0  0  0  0  0  0  0
   15.3017   -1.1964   15.8871 C   0  0  0  0  0  0  0  0  0  0  0  0
   13.8568   -1.4904   15.4825 C   0  0  0  0  0  0  0  0  0  0  0  0
   13.5591   -1.8063   14.0334 C   0  0  0  0  0  0  0  0  0  0  0  0
   12.1850   -2.4555   14.1292 C   0  0  0  0  0  0  0  0  0  0  0  0
   12.0343   -2.9273   15.5663 C   0  0  0  0  0  0  0  0  0  0  0  0
   13.3034   -2.6364   16.2320 N   0  0  0  0  0  0  0  0  0  0  0  0
   17.7464   -0.1594   16.0536 H   0  0  0  0  0  0  0  0  0  0  0  0
   17.8345    0.3429   14.3554 H   0  0  0  0  0  0  0  0  0  0  0  0
   17.6340   -1.3453   14.7350 H   0  0  0  0  0  0  0  0  0  0  0  0
   15.9230    1.5100   16.2910 H   0  0  0  0  0  0  0  0  0  0  0  0
   14.3825    1.2243   15.5056 H   0  0  0  0  0  0  0  0  0  0  0  0
   15.4580    3.2100   14.6104 H   0  0  0  0  0  0  0  0  0  0  0  0
   16.8598    2.3206   14.0961 H   0  0  0  0  0  0  0  0  0  0  0  0
   15.4567    0.9993   12.4890 H   0  0  0  0  0  0  0  0  0  0  0  0
   14.0041    1.8470   13.0534 H   0  0  0  0  0  0  0  0  0  0  0  0
   14.9470    3.7881   12.3616 H   0  0  0  0  0  0  0  0  0  0  0  0
   15.3617   -0.9010   16.9431 H   0  0  0  0  0  0  0  0  0  0  0  0
   15.8590   -2.1394   15.7948 H   0  0  0  0  0  0  0  0  0  0  0  0
   13.2817   -0.5892   15.6678 H   0  0  0  0  0  0  0  0  0  0  0  0
   13.5162   -0.9039   13.4131 H   0  0  0  0  0  0  0  0  0  0  0  0
   14.3163   -2.4532   13.5894 H   0  0  0  0  0  0  0  0  0  0  0  0
   12.0529   -3.2577   13.4016 H   0  0  0  0  0  0  0  0  0  0  0  0
   11.4295   -1.6921   13.9262 H   0  0  0  0  0  0  0  0  0  0  0  0
   11.2292   -2.3633   16.0410 H   0  0  0  0  0  0  0  0  0  0  0  0
   11.7706   -3.9810   15.6547 H   0  0  0  0  0  0  0  0  0  0  0  0
   13.9228   -3.4378   16.0962 H   0  0  0  0  0  0  0  0  0  0  0  0
  1  2  1  0
  2  3  1  0
  3  4  1  0
  4  5  1  0
  5  6  1  0
  2  7  1  0
  7  8  1  0
  8  9  1  0
  9 10  1  0
 10 11  1  0
 11 12  1  0
 12  8  1  0
  1 13  1  0
  1 14  1  0
  1 15  1  0
  3 16  1  0
  3 17  1  0
  4 18  1  0
  4 19  1  0
  5 20  1  0
  5 21  1  0
  6 22  1  0
  7 23  1  0
  7 24  1  0
  8 25  1  0
  9 26  1  0
  9 27  1  0
 10 28  1  0
 10 29  1  0
 11 30  1  0
 11 31  1  0
 12 32  1  0
M  END
>  <Energy>  (628) 
33.326894048716269

>  <compound_id>  (628) 
54732

>  <target_id>  (628) 
1

>  <reference_id>  (628) 
76

>  <inspiration_ids>  (628) 
[124, 76]

>  <energy_score>  (628) 
-32.22100979645447

>  <distance_score>  (628) 
1.5858703339815894

>  <path>  (628) 
/opt/xchem-fragalysis-2/maxwin/BulkDock/SCRATCH/511024/C54732-P76/C54732-P76.minimised.mol

>  <scratch_subdir>  (628) 
/opt/xchem-fragalysis-2/maxwin/BulkDock/SCRATCH/511024/C54732-P76

>  <fragmenstein_runtime>  (628) 
1.6357595920562744

>  <fragmenstein_outcome>  (628) 
too moved

>  <fragmenstein_mode>  (628) 
expansion

>  <fragmenstein_error>  (628) 


$$$$
C54733-P124
     RDKit          3D

 41 41  0  0  0  0  0  0  0  0999 V2000
   13.0815   -0.2475   14.1512 C   0  0  0  0  0  0  0  0  0  0  0  0
   13.9710   -1.3450   14.7336 C   0  0  0  0  0  0  0  0  0  0  0  0
   14.5695   -2.1100   13.5726 C   0  0  0  0  0  0  0  0  0  0  0  0
   13.4653   -2.0883   15.9027 N   0  0  0  0  0  0  0  0  0  0  0  0
   12.3970   -3.0548   15.7275 C   0  0  0  0  0  0  0  0  0  0  0  0
   11.2787   -2.7880   14.7625 C   0  0  0  0  0  0  0  0  0  0  0  0
   10.6403   -4.0241   14.5907 O   0  0  0  0  0  0  0  0  0  0  0  0
   14.5462   -2.7354   16.6772 C   0  0  0  0  0  0  0  0  0  0  0  0
   14.9850   -2.0034   17.9533 C   0  0  0  0  0  0  0  0  0  0  0  0
   15.4799   -0.5481   17.8936 C   0  0  0  0  0  0  0  0  0  0  0  0
   16.8667   -0.2412   17.5565 N   0  0  0  0  0  0  0  0  0  0  0  0
   17.1284    0.0510   16.1530 C   0  0  0  0  0  0  0  0  0  0  0  0
   17.6518   -1.2371   15.5416 C   0  0  0  0  0  0  0  0  0  0  0  0
   18.0663   -2.1087   16.7191 C   0  0  0  0  0  0  0  0  0  0  0  0
   17.8646   -1.2320   17.9442 C   0  0  0  0  0  0  0  0  0  0  0  0
   13.1768    0.6419   14.7788 H   0  0  0  0  0  0  0  0  0  0  0  0
   13.4223    0.0675   13.1572 H   0  0  0  0  0  0  0  0  0  0  0  0
   12.0312   -0.5069   14.0494 H   0  0  0  0  0  0  0  0  0  0  0  0
   14.8080   -0.7724   15.1253 H   0  0  0  0  0  0  0  0  0  0  0  0
   15.1178   -1.4262   12.9108 H   0  0  0  0  0  0  0  0  0  0  0  0
   15.3114   -2.8448   13.8875 H   0  0  0  0  0  0  0  0  0  0  0  0
   13.8001   -2.5730   12.9514 H   0  0  0  0  0  0  0  0  0  0  0  0
   12.8332   -4.0211   15.4803 H   0  0  0  0  0  0  0  0  0  0  0  0
   11.9446   -3.2322   16.7096 H   0  0  0  0  0  0  0  0  0  0  0  0
   11.6359   -2.5084   13.7727 H   0  0  0  0  0  0  0  0  0  0  0  0
   10.5668   -2.0455   15.1287 H   0  0  0  0  0  0  0  0  0  0  0  0
   10.3012   -4.3853   15.4321 H   0  0  0  0  0  0  0  0  0  0  0  0
   15.4081   -2.9535   16.0470 H   0  0  0  0  0  0  0  0  0  0  0  0
   14.2321   -3.7291   17.0296 H   0  0  0  0  0  0  0  0  0  0  0  0
   15.7181   -2.6370   18.4643 H   0  0  0  0  0  0  0  0  0  0  0  0
   14.1427   -2.0134   18.6423 H   0  0  0  0  0  0  0  0  0  0  0  0
   14.8020    0.0681   17.2958 H   0  0  0  0  0  0  0  0  0  0  0  0
   15.3541   -0.1597   18.9142 H   0  0  0  0  0  0  0  0  0  0  0  0
   16.2976    0.5056   15.6094 H   0  0  0  0  0  0  0  0  0  0  0  0
   17.9309    0.8001   16.1154 H   0  0  0  0  0  0  0  0  0  0  0  0
   18.5086   -1.0331   14.8896 H   0  0  0  0  0  0  0  0  0  0  0  0
   16.9069   -1.7448   14.9345 H   0  0  0  0  0  0  0  0  0  0  0  0
   17.4603   -3.0170   16.7694 H   0  0  0  0  0  0  0  0  0  0  0  0
   19.1108   -2.4258   16.6282 H   0  0  0  0  0  0  0  0  0  0  0  0
   17.6311   -1.7929   18.8540 H   0  0  0  0  0  0  0  0  0  0  0  0
   18.8029   -0.7030   18.1576 H   0  0  0  0  0  0  0  0  0  0  0  0
  1  2  1  0
  2  3  1  0
  2  4  1  0
  4  5  1  0
  5  6  1  0
  6  7  1  0
  4  8  1  0
  8  9  1  0
  9 10  1  0
 10 11  1  0
 11 12  1  0
 12 13  1  0
 13 14  1  0
 14 15  1  0
 15 11  1  0
  1 16  1  0
  1 17  1  0
  1 18  1  0
  2 19  1  0
  3 20  1  0
  3 21  1  0
  3 22  1  0
  5 23  1  0
  5 24  1  0
  6 25  1  0
  6 26  1  0
  7 27  1  0
  8 28  1  0
  8 29  1  0
  9 30  1  0
  9 31  1  0
 10 32  1  0
 10 33  1  0
 12 34  1  0
 12 35  1  0
 13 36  1  0
 13 37  1  0
 14 38  1  0
 14 39  1  0
 15 40  1  0
 15 41  1  0
M  END
>  <Energy>  (629) 
67.619681759272737

>  <compound_id>  (629) 
54733

>  <target_id>  (629) 
1

>  <reference_id>  (629) 
124

>  <inspiration_ids>  (629) 
[124, 76]

>  <energy_score>  (629) 
-5.749578368494582

>  <distance_score>  (629) 
2.205671145428706

>  <path>  (629) 
/opt/xchem-fragalysis-2/maxwin/BulkDock/SCRATCH/511024/C54733-P124/C54733-P124.minimised.mol

>  <scratch_subdir>  (629) 
/opt/xchem-fragalysis-2/maxwin/BulkDock/SCRATCH/511024/C54733-P124

>  <fragmenstein_runtime>  (629) 
3.1309120655059814

>  <fragmenstein_outcome>  (629) 
too moved

>  <fragmenstein_mode>  (629) 
expansion

>  <fragmenstein_error>  (629) 


$$$$
C54733-P76
     RDKit          3D

 41 41  0  0  0  0  0  0  0  0999 V2000
   13.0358   -0.5170   13.6334 C   0  0  0  0  0  0  0  0  0  0  0  0
   13.4328   -1.9816   13.8067 C   0  0  0  0  0  0  0  0  0  0  0  0
   14.9607   -2.0309   13.6714 C   0  0  0  0  0  0  0  0  0  0  0  0
   12.8080   -2.6880   14.9319 N   0  0  0  0  0  0  0  0  0  0  0  0
   11.4099   -3.0937   14.7368 C   0  0  0  0  0  0  0  0  0  0  0  0
   10.5001   -1.9611   15.1336 C   0  0  0  0  0  0  0  0  0  0  0  0
    9.0961   -2.1158   15.0196 O   0  0  0  0  0  0  0  0  0  0  0  0
   13.3692   -2.8649   16.2732 C   0  0  0  0  0  0  0  0  0  0  0  0
   14.6122   -2.0151   16.5680 C   0  0  0  0  0  0  0  0  0  0  0  0
   14.9898   -1.7645   18.0312 C   0  0  0  0  0  0  0  0  0  0  0  0
   16.2353   -1.0219   18.2387 N   0  0  0  0  0  0  0  0  0  0  0  0
   16.3010    0.2622   17.5388 C   0  0  0  0  0  0  0  0  0  0  0  0
   17.1252    0.0449   16.2806 C   0  0  0  0  0  0  0  0  0  0  0  0
   17.7913   -1.3110   16.4419 C   0  0  0  0  0  0  0  0  0  0  0  0
   17.4324   -1.7660   17.8448 C   0  0  0  0  0  0  0  0  0  0  0  0
   13.6311   -0.0454   12.8410 H   0  0  0  0  0  0  0  0  0  0  0  0
   12.0009   -0.3897   13.3203 H   0  0  0  0  0  0  0  0  0  0  0  0
   13.2179    0.0548   14.5460 H   0  0  0  0  0  0  0  0  0  0  0  0
   13.0806   -2.4900   12.9021 H   0  0  0  0  0  0  0  0  0  0  0  0
   15.4484   -1.1827   14.1482 H   0  0  0  0  0  0  0  0  0  0  0  0
   15.2286   -1.9651   12.6083 H   0  0  0  0  0  0  0  0  0  0  0  0
   15.4299   -2.9441   14.0367 H   0  0  0  0  0  0  0  0  0  0  0  0
   11.2326   -3.4032   13.7041 H   0  0  0  0  0  0  0  0  0  0  0  0
   11.1764   -3.9657   15.3531 H   0  0  0  0  0  0  0  0  0  0  0  0
   10.7358   -1.0484   14.6076 H   0  0  0  0  0  0  0  0  0  0  0  0
   10.7094   -1.8329   16.1796 H   0  0  0  0  0  0  0  0  0  0  0  0
    8.9130   -1.9895   14.0611 H   0  0  0  0  0  0  0  0  0  0  0  0
   13.6334   -3.9210   16.4072 H   0  0  0  0  0  0  0  0  0  0  0  0
   12.6084   -2.6608   17.0267 H   0  0  0  0  0  0  0  0  0  0  0  0
   15.4489   -2.5332   16.1026 H   0  0  0  0  0  0  0  0  0  0  0  0
   14.4818   -1.0353   16.1056 H   0  0  0  0  0  0  0  0  0  0  0  0
   14.2040   -1.2030   18.5353 H   0  0  0  0  0  0  0  0  0  0  0  0
   15.0442   -2.7232   18.5623 H   0  0  0  0  0  0  0  0  0  0  0  0
   15.3231    0.7114   17.3337 H   0  0  0  0  0  0  0  0  0  0  0  0
   16.8281    0.9727   18.1881 H   0  0  0  0  0  0  0  0  0  0  0  0
   17.8801    0.8330   16.1791 H   0  0  0  0  0  0  0  0  0  0  0  0
   16.5076    0.0857   15.3831 H   0  0  0  0  0  0  0  0  0  0  0  0
   17.4384   -2.0105   15.6791 H   0  0  0  0  0  0  0  0  0  0  0  0
   18.8772   -1.2335   16.3194 H   0  0  0  0  0  0  0  0  0  0  0  0
   17.3239   -2.8540   17.9150 H   0  0  0  0  0  0  0  0  0  0  0  0
   18.2445   -1.4905   18.5293 H   0  0  0  0  0  0  0  0  0  0  0  0
  1  2  1  0
  2  3  1  0
  2  4  1  0
  4  5  1  0
  5  6  1  0
  6  7  1  0
  4  8  1  0
  8  9  1  0
  9 10  1  0
 10 11  1  0
 11 12  1  0
 12 13  1  0
 13 14  1  0
 14 15  1  0
 15 11  1  0
  1 16  1  0
  1 17  1  0
  1 18  1  0
  2 19  1  0
  3 20  1  0
  3 21  1  0
  3 22  1  0
  5 23  1  0
  5 24  1  0
  6 25  1  0
  6 26  1  0
  7 27  1  0
  8 28  1  0
  8 29  1  0
  9 30  1  0
  9 31  1  0
 10 32  1  0
 10 33  1  0
 12 34  1  0
 12 35  1  0
 13 36  1  0
 13 37  1  0
 14 38  1  0
 14 39  1  0
 15 40  1  0
 15 41  1  0
M  END
>  <Energy>  (630) 
68.194361117433999

>  <compound_id>  (630) 
54733

>  <target_id>  (630) 
1

>  <reference_id>  (630) 
76

>  <inspiration_ids>  (630) 
[124, 76]

>  <energy_score>  (630) 
-5.174899010333519

>  <distance_score>  (630) 
2.3018193564047156

>  <path>  (630) 
/opt/xchem-fragalysis-2/maxwin/BulkDock/SCRATCH/511024/C54733-P76/C54733-P76.minimised.mol

>  <scratch_subdir>  (630) 
/opt/xchem-fragalysis-2/maxwin/BulkDock/SCRATCH/511024/C54733-P76

>  <fragmenstein_runtime>  (630) 
2.7750813961029053

>  <fragmenstein_outcome>  (630) 
too moved

>  <fragmenstein_mode>  (630) 
expansion

>  <fragmenstein_error>  (630) 


$$$$
C54734-P124
     RDKit          3D

 35 35  0  0  0  0  0  0  0  0999 V2000
   15.7244    2.0477   18.4805 C   0  0  0  0  0  0  0  0  0  0  0  0
   16.9114    1.4225   17.7824 C   0  0  0  0  0  0  0  0  0  0  0  0
   16.6357    1.1695   16.3970 N   0  0  0  0  0  0  0  0  0  0  0  0
   17.5892    0.8154   15.2314 C   0  0  0  0  0  0  0  0  0  0  0  0
   18.7539    0.7502   15.2004 O   0  0  0  0  0  0  0  0  0  0  0  0
   16.6983    0.6210   13.9832 C   0  0  0  0  0  0  0  0  0  0  0  0
   15.3195    0.1413   14.3295 N   0  0  0  0  0  0  0  0  0  0  0  0
   14.4747    0.3586   13.1465 C   0  0  0  0  0  0  0  0  0  0  0  0
   15.3865   -1.3015   14.6972 C   0  0  0  0  0  0  0  0  0  0  0  0
   14.1954   -1.7859   15.5486 C   0  0  0  0  0  0  0  0  0  0  0  0
   12.8962   -1.9695   14.7777 C   0  0  0  0  0  0  0  0  0  0  0  0
   12.0869   -2.9491   15.5994 C   0  0  0  0  0  0  0  0  0  0  0  0
   13.0811   -3.6228   16.5261 C   0  0  0  0  0  0  0  0  0  0  0  0
   14.4093   -3.0868   16.2120 N   0  0  0  0  0  0  0  0  0  0  0  0
   15.4252    2.9812   17.9927 H   0  0  0  0  0  0  0  0  0  0  0  0
   14.8655    1.3705   18.4660 H   0  0  0  0  0  0  0  0  0  0  0  0
   15.9663    2.2663   19.5250 H   0  0  0  0  0  0  0  0  0  0  0  0
   17.1734    0.4660   18.2453 H   0  0  0  0  0  0  0  0  0  0  0  0
   17.7920    2.0699   17.8376 H   0  0  0  0  0  0  0  0  0  0  0  0
   15.6682    1.0498   16.0942 H   0  0  0  0  0  0  0  0  0  0  0  0
   16.6489    1.6097   13.5098 H   0  0  0  0  0  0  0  0  0  0  0  0
   17.1945   -0.0715   13.2926 H   0  0  0  0  0  0  0  0  0  0  0  0
   14.7906   -0.2509   12.2920 H   0  0  0  0  0  0  0  0  0  0  0  0
   14.5061    1.4116   12.8421 H   0  0  0  0  0  0  0  0  0  0  0  0
   13.4241    0.1552   13.3507 H   0  0  0  0  0  0  0  0  0  0  0  0
   16.2837   -1.4702   15.3076 H   0  0  0  0  0  0  0  0  0  0  0  0
   15.5122   -1.9313   13.8061 H   0  0  0  0  0  0  0  0  0  0  0  0
   14.0857   -1.0522   16.3458 H   0  0  0  0  0  0  0  0  0  0  0  0
   13.0748   -2.3766   13.7766 H   0  0  0  0  0  0  0  0  0  0  0  0
   12.3400   -1.0379   14.6613 H   0  0  0  0  0  0  0  0  0  0  0  0
   11.3277   -2.4147   16.1724 H   0  0  0  0  0  0  0  0  0  0  0  0
   11.5553   -3.6537   14.9561 H   0  0  0  0  0  0  0  0  0  0  0  0
   12.8452   -3.4094   17.5706 H   0  0  0  0  0  0  0  0  0  0  0  0
   13.0578   -4.7083   16.4155 H   0  0  0  0  0  0  0  0  0  0  0  0
   14.8896   -3.7202   15.5735 H   0  0  0  0  0  0  0  0  0  0  0  0
  1  2  1  0
  2  3  1  0
  3  4  1  0
  4  5  2  0
  4  6  1  0
  6  7  1  0
  7  8  1  0
  7  9  1  0
  9 10  1  0
 10 11  1  0
 11 12  1  0
 12 13  1  0
 13 14  1  0
 14 10  1  0
  1 15  1  0
  1 16  1  0
  1 17  1  0
  2 18  1  0
  2 19  1  0
  3 20  1  0
  6 21  1  0
  6 22  1  0
  8 23  1  0
  8 24  1  0
  8 25  1  0
  9 26  1  0
  9 27  1  0
 10 28  1  0
 11 29  1  0
 11 30  1  0
 12 31  1  0
 12 32  1  0
 13 33  1  0
 13 34  1  0
 14 35  1  0
M  END
>  <Energy>  (631) 
61.404113457803859

>  <compound_id>  (631) 
54734

>  <target_id>  (631) 
1

>  <reference_id>  (631) 
124

>  <inspiration_ids>  (631) 
[124, 76]

>  <energy_score>  (631) 
-22.710133720079313

>  <distance_score>  (631) 
1.895585643050017

>  <path>  (631) 
/opt/xchem-fragalysis-2/maxwin/BulkDock/SCRATCH/511024/C54734-P124/C54734-P124.minimised.mol

>  <scratch_subdir>  (631) 
/opt/xchem-fragalysis-2/maxwin/BulkDock/SCRATCH/511024/C54734-P124

>  <fragmenstein_runtime>  (631) 
1.9615750312805176

>  <fragmenstein_outcome>  (631) 
too moved

>  <fragmenstein_mode>  (631) 
expansion

>  <fragmenstein_error>  (631) 


$$$$
C54734-P76
     RDKit          3D

 35 35  0  0  0  0  0  0  0  0999 V2000
   15.8928    2.1689   18.8518 C   0  0  0  0  0  0  0  0  0  0  0  0
   16.5711    1.1706   17.9404 C   0  0  0  0  0  0  0  0  0  0  0  0
   15.8348    1.0534   16.7167 N   0  0  0  0  0  0  0  0  0  0  0  0
   16.0406    1.7527   15.3452 C   0  0  0  0  0  0  0  0  0  0  0  0
   16.8868    2.4716   14.9817 O   0  0  0  0  0  0  0  0  0  0  0  0
   14.8337    1.3661   14.4614 C   0  0  0  0  0  0  0  0  0  0  0  0
   15.0882    0.1462   13.6802 N   0  0  0  0  0  0  0  0  0  0  0  0
   14.2381    0.1027   12.4971 C   0  0  0  0  0  0  0  0  0  0  0  0
   15.1386   -1.1213   14.4188 C   0  0  0  0  0  0  0  0  0  0  0  0
   13.8826   -1.5598   15.1965 C   0  0  0  0  0  0  0  0  0  0  0  0
   12.6902   -2.0213   14.3778 C   0  0  0  0  0  0  0  0  0  0  0  0
   11.8909   -2.8553   15.3581 C   0  0  0  0  0  0  0  0  0  0  0  0
   12.9039   -3.3917   16.3538 C   0  0  0  0  0  0  0  0  0  0  0  0
   14.1532   -2.6485   16.1568 N   0  0  0  0  0  0  0  0  0  0  0  0
   16.4470    2.2680   19.7902 H   0  0  0  0  0  0  0  0  0  0  0  0
   15.8348    3.1568   18.3823 H   0  0  0  0  0  0  0  0  0  0  0  0
   14.8711    1.8539   19.0897 H   0  0  0  0  0  0  0  0  0  0  0  0
   16.6146    0.1820   18.4059 H   0  0  0  0  0  0  0  0  0  0  0  0
   17.5858    1.5027   17.7025 H   0  0  0  0  0  0  0  0  0  0  0  0
   15.0394    0.4331   16.6634 H   0  0  0  0  0  0  0  0  0  0  0  0
   14.6962    2.2222   13.7860 H   0  0  0  0  0  0  0  0  0  0  0  0
   13.9158    1.3133   15.0539 H   0  0  0  0  0  0  0  0  0  0  0  0
   14.4960    0.9241   11.8187 H   0  0  0  0  0  0  0  0  0  0  0  0
   13.1771    0.2003   12.7411 H   0  0  0  0  0  0  0  0  0  0  0  0
   14.3873   -0.8217   11.9282 H   0  0  0  0  0  0  0  0  0  0  0  0
   15.9860   -1.0686   15.1137 H   0  0  0  0  0  0  0  0  0  0  0  0
   15.4229   -1.9228   13.7227 H   0  0  0  0  0  0  0  0  0  0  0  0
   13.5690   -0.6989   15.7716 H   0  0  0  0  0  0  0  0  0  0  0  0
   12.9892   -2.6107   13.5079 H   0  0  0  0  0  0  0  0  0  0  0  0
   12.0822   -1.1884   14.0145 H   0  0  0  0  0  0  0  0  0  0  0  0
   11.1683   -2.2149   15.8699 H   0  0  0  0  0  0  0  0  0  0  0  0
   11.3204   -3.6398   14.8568 H   0  0  0  0  0  0  0  0  0  0  0  0
   12.5585   -3.2645   17.3798 H   0  0  0  0  0  0  0  0  0  0  0  0
   13.0775   -4.4617   16.2203 H   0  0  0  0  0  0  0  0  0  0  0  0
   14.8507   -3.2814   15.7590 H   0  0  0  0  0  0  0  0  0  0  0  0
  1  2  1  0
  2  3  1  0
  3  4  1  0
  4  5  2  0
  4  6  1  0
  6  7  1  0
  7  8  1  0
  7  9  1  0
  9 10  1  0
 10 11  1  0
 11 12  1  0
 12 13  1  0
 13 14  1  0
 14 10  1  0
  1 15  1  0
  1 16  1  0
  1 17  1  0
  2 18  1  0
  2 19  1  0
  3 20  1  0
  6 21  1  0
  6 22  1  0
  8 23  1  0
  8 24  1  0
  8 25  1  0
  9 26  1  0
  9 27  1  0
 10 28  1  0
 11 29  1  0
 11 30  1  0
 12 31  1  0
 12 32  1  0
 13 33  1  0
 13 34  1  0
 14 35  1  0
M  END
>  <Energy>  (632) 
69.991618869999712

>  <compound_id>  (632) 
54734

>  <target_id>  (632) 
1

>  <reference_id>  (632) 
76

>  <inspiration_ids>  (632) 
[124, 76]

>  <energy_score>  (632) 
-14.12262830788302

>  <distance_score>  (632) 
1.6413009589712688

>  <path>  (632) 
/opt/xchem-fragalysis-2/maxwin/BulkDock/SCRATCH/511024/C54734-P76/C54734-P76.minimised.mol

>  <scratch_subdir>  (632) 
/opt/xchem-fragalysis-2/maxwin/BulkDock/SCRATCH/511024/C54734-P76

>  <fragmenstein_runtime>  (632) 
1.5911946296691895

>  <fragmenstein_outcome>  (632) 
too moved

>  <fragmenstein_mode>  (632) 
expansion

>  <fragmenstein_error>  (632) 


$$$$
C54735-P124
     RDKit          3D

 35 35  0  0  0  0  0  0  0  0999 V2000
   15.6975    2.6809   17.6135 C   0  0  0  0  0  0  0  0  0  0  0  0
   16.2467    1.4865   18.3867 C   0  0  0  0  0  0  0  0  0  0  0  0
   16.6592    0.3853   17.4906 N   0  0  0  0  0  0  0  0  0  0  0  0
   15.4914   -0.3622   16.9994 C   0  0  0  0  0  0  0  0  0  0  0  0
   15.8226   -1.2964   15.8295 C   0  0  0  0  0  0  0  0  0  0  0  0
   14.6382   -2.0821   15.2549 C   0  0  0  0  0  0  0  0  0  0  0  0
   13.5565   -1.2581   14.5670 C   0  0  0  0  0  0  0  0  0  0  0  0
   12.3355   -2.1565   14.6411 C   0  0  0  0  0  0  0  0  0  0  0  0
   12.4520   -2.8009   15.9488 N   0  0  0  0  0  0  0  0  0  0  0  0
   13.8765   -2.9731   16.2421 C   0  0  0  0  0  0  0  0  0  0  0  0
   17.7058   -0.4376   18.1398 C   0  0  0  0  0  0  0  0  0  0  0  0
   17.2187   -1.1846   19.4191 C   0  0  0  0  0  0  0  0  0  0  0  0
   16.9625   -2.5874   19.1377 N   0  0  0  0  0  0  0  0  0  0  0  0
   17.1060   -0.5588   20.4375 O   0  0  0  0  0  0  0  0  0  0  0  0
   15.5080    3.5123   18.3007 H   0  0  0  0  0  0  0  0  0  0  0  0
   14.7551    2.4550   17.1078 H   0  0  0  0  0  0  0  0  0  0  0  0
   16.4162    3.0266   16.8628 H   0  0  0  0  0  0  0  0  0  0  0  0
   17.1142    1.8595   18.9462 H   0  0  0  0  0  0  0  0  0  0  0  0
   15.5088    1.1502   19.1254 H   0  0  0  0  0  0  0  0  0  0  0  0
   14.7510    0.3498   16.6291 H   0  0  0  0  0  0  0  0  0  0  0  0
   15.0178   -0.9042   17.8230 H   0  0  0  0  0  0  0  0  0  0  0  0
   16.2721   -0.7053   15.0205 H   0  0  0  0  0  0  0  0  0  0  0  0
   16.5801   -2.0268   16.1297 H   0  0  0  0  0  0  0  0  0  0  0  0
   15.0752   -2.7282   14.4841 H   0  0  0  0  0  0  0  0  0  0  0  0
   13.8218   -1.0198   13.5319 H   0  0  0  0  0  0  0  0  0  0  0  0
   13.3704   -0.3149   15.0851 H   0  0  0  0  0  0  0  0  0  0  0  0
   12.3489   -2.9016   13.8403 H   0  0  0  0  0  0  0  0  0  0  0  0
   11.4043   -1.5905   14.5581 H   0  0  0  0  0  0  0  0  0  0  0  0
   11.9682   -3.7003   15.9528 H   0  0  0  0  0  0  0  0  0  0  0  0
   14.0583   -2.7240   17.2895 H   0  0  0  0  0  0  0  0  0  0  0  0
   14.1736   -4.0190   16.1156 H   0  0  0  0  0  0  0  0  0  0  0  0
   18.5485    0.1994   18.4408 H   0  0  0  0  0  0  0  0  0  0  0  0
   18.1501   -1.1279   17.4159 H   0  0  0  0  0  0  0  0  0  0  0  0
   17.0575   -2.7505   18.1209 H   0  0  0  0  0  0  0  0  0  0  0  0
   17.2819   -2.8030   18.1773 H   0  0  0  0  0  0  0  0  0  0  0  0
  1  2  1  0
  2  3  1  0
  3  4  1  0
  4  5  1  0
  5  6  1  0
  6  7  1  0
  7  8  1  0
  8  9  1  0
  9 10  1  0
  3 11  1  0
 11 12  1  0
 12 13  1  0
 12 14  2  0
 10  6  1  0
  1 15  1  0
  1 16  1  0
  1 17  1  0
  2 18  1  0
  2 19  1  0
  4 20  1  0
  4 21  1  0
  5 22  1  0
  5 23  1  0
  6 24  1  0
  7 25  1  0
  7 26  1  0
  8 27  1  0
  8 28  1  0
  9 29  1  0
 10 30  1  0
 10 31  1  0
 11 32  1  0
 11 33  1  0
 13 34  1  0
 13 35  1  0
M  END
>  <Energy>  (633) 
210.17656792515919

>  <compound_id>  (633) 
54735

>  <target_id>  (633) 
1

>  <reference_id>  (633) 
124

>  <inspiration_ids>  (633) 
[124, 76]

>  <energy_score>  (633) 
119.28094464029172

>  <distance_score>  (633) 
2.0278919745378383

>  <path>  (633) 
/opt/xchem-fragalysis-2/maxwin/BulkDock/SCRATCH/511024/C54735-P124/C54735-P124.minimised.mol

>  <scratch_subdir>  (633) 
/opt/xchem-fragalysis-2/maxwin/BulkDock/SCRATCH/511024/C54735-P124

>  <fragmenstein_runtime>  (633) 
14.410601139068604

>  <fragmenstein_outcome>  (633) 
too moved

>  <fragmenstein_mode>  (633) 
expansion

>  <fragmenstein_error>  (633) 


$$$$
C54735-P76
     RDKit          3D

 35 35  0  0  0  0  0  0  0  0999 V2000
   15.3707    1.8101   18.6861 C   0  0  0  0  0  0  0  0  0  0  0  0
   16.5576    0.8573   18.6213 C   0  0  0  0  0  0  0  0  0  0  0  0
   16.3653   -0.3365   17.7735 N   0  0  0  0  0  0  0  0  0  0  0  0
   16.0124    0.0363   16.3878 C   0  0  0  0  0  0  0  0  0  0  0  0
   15.9765   -1.0730   15.3261 C   0  0  0  0  0  0  0  0  0  0  0  0
   14.8904   -2.1460   15.4222 C   0  0  0  0  0  0  0  0  0  0  0  0
   13.5430   -1.7213   14.8394 C   0  0  0  0  0  0  0  0  0  0  0  0
   12.5276   -2.6561   15.4900 C   0  0  0  0  0  0  0  0  0  0  0  0
   13.2712   -3.4402   16.4738 N   0  0  0  0  0  0  0  0  0  0  0  0
   14.5037   -2.7079   16.7807 C   0  0  0  0  0  0  0  0  0  0  0  0
   17.5446   -1.2347   17.8344 C   0  0  0  0  0  0  0  0  0  0  0  0
   17.8112   -1.7659   19.2766 C   0  0  0  0  0  0  0  0  0  0  0  0
   18.9127   -1.0463   19.9006 N   0  0  0  0  0  0  0  0  0  0  0  0
   17.1318   -2.6651   19.6903 O   0  0  0  0  0  0  0  0  0  0  0  0
   15.5783    2.6120   19.4030 H   0  0  0  0  0  0  0  0  0  0  0  0
   14.4767    1.2858   19.0299 H   0  0  0  0  0  0  0  0  0  0  0  0
   15.1622    2.2837   17.7228 H   0  0  0  0  0  0  0  0  0  0  0  0
   17.4424    1.4175   18.2928 H   0  0  0  0  0  0  0  0  0  0  0  0
   16.7406    0.5449   19.6550 H   0  0  0  0  0  0  0  0  0  0  0  0
   16.7290    0.7900   16.0335 H   0  0  0  0  0  0  0  0  0  0  0  0
   15.0257    0.5120   16.3853 H   0  0  0  0  0  0  0  0  0  0  0  0
   15.8756   -0.5840   14.3467 H   0  0  0  0  0  0  0  0  0  0  0  0
   16.9559   -1.5633   15.2743 H   0  0  0  0  0  0  0  0  0  0  0  0
   15.2666   -2.9770   14.8133 H   0  0  0  0  0  0  0  0  0  0  0  0
   13.5355   -1.8130   13.7479 H   0  0  0  0  0  0  0  0  0  0  0  0
   13.3180   -0.6798   15.0872 H   0  0  0  0  0  0  0  0  0  0  0  0
   12.0589   -3.3102   14.7501 H   0  0  0  0  0  0  0  0  0  0  0  0
   11.7205   -2.0929   15.9615 H   0  0  0  0  0  0  0  0  0  0  0  0
   12.7272   -3.6274   17.3151 H   0  0  0  0  0  0  0  0  0  0  0  0
   14.2945   -1.9317   17.5196 H   0  0  0  0  0  0  0  0  0  0  0  0
   15.2646   -3.3834   17.1810 H   0  0  0  0  0  0  0  0  0  0  0  0
   18.4320   -0.7524   17.4089 H   0  0  0  0  0  0  0  0  0  0  0  0
   17.3797   -2.1459   17.2494 H   0  0  0  0  0  0  0  0  0  0  0  0
   19.3394   -0.4114   19.2036 H   0  0  0  0  0  0  0  0  0  0  0  0
   19.1859   -0.2540   19.2931 H   0  0  0  0  0  0  0  0  0  0  0  0
  1  2  1  0
  2  3  1  0
  3  4  1  0
  4  5  1  0
  5  6  1  0
  6  7  1  0
  7  8  1  0
  8  9  1  0
  9 10  1  0
  3 11  1  0
 11 12  1  0
 12 13  1  0
 12 14  2  0
 10  6  1  0
  1 15  1  0
  1 16  1  0
  1 17  1  0
  2 18  1  0
  2 19  1  0
  4 20  1  0
  4 21  1  0
  5 22  1  0
  5 23  1  0
  6 24  1  0
  7 25  1  0
  7 26  1  0
  8 27  1  0
  8 28  1  0
  9 29  1  0
 10 30  1  0
 10 31  1  0
 11 32  1  0
 11 33  1  0
 13 34  1  0
 13 35  1  0
M  END
>  <Energy>  (634) 
214.42794592208827

>  <compound_id>  (634) 
54735

>  <target_id>  (634) 
1

>  <reference_id>  (634) 
76

>  <inspiration_ids>  (634) 
[124, 76]

>  <energy_score>  (634) 
123.53232263722228

>  <distance_score>  (634) 
2.4440741325923088

>  <path>  (634) 
/opt/xchem-fragalysis-2/maxwin/BulkDock/SCRATCH/511024/C54735-P76/C54735-P76.minimised.mol

>  <scratch_subdir>  (634) 
/opt/xchem-fragalysis-2/maxwin/BulkDock/SCRATCH/511024/C54735-P76

>  <fragmenstein_runtime>  (634) 
14.025354146957397

>  <fragmenstein_outcome>  (634) 
too moved

>  <fragmenstein_mode>  (634) 
expansion

>  <fragmenstein_error>  (634) 


$$$$
C54736-P124
     RDKit          3D

 34 34  0  0  0  0  0  0  0  0999 V2000
   18.1679    0.6285   18.3817 C   0  0  0  0  0  0  0  0  0  0  0  0
   16.7321    0.0962   18.3027 C   0  0  0  0  0  0  0  0  0  0  0  0
   15.7948    1.1863   17.7089 C   0  0  0  0  0  0  0  0  0  0  0  0
   15.9962    1.4107   16.2662 N   0  0  0  0  0  0  0  0  0  0  0  0
   14.9866    2.3737   15.7418 C   0  0  0  0  0  0  0  0  0  0  0  0
   15.4467    2.7428   14.3116 C   0  0  0  0  0  0  0  0  0  0  0  0
   16.8530    2.4622   14.1084 N   0  0  0  0  0  0  0  0  0  0  0  0
   14.5822    3.2376   13.5385 N   0  0  0  0  0  0  0  0  0  0  0  0
   15.1499    3.5038   12.2868 O   0  0  0  0  0  0  0  0  0  0  0  0
   16.6739   -1.2313   17.6805 N   0  0  0  0  0  0  0  0  0  0  0  0
   17.4644   -1.5171   16.4886 C   0  0  0  0  0  0  0  0  0  0  0  0
   16.7360   -2.6646   15.7915 C   0  0  0  0  0  0  0  0  0  0  0  0
   15.6948   -3.1273   16.7947 C   0  0  0  0  0  0  0  0  0  0  0  0
   15.3675   -1.8537   17.5494 C   0  0  0  0  0  0  0  0  0  0  0  0
   18.8290   -0.1022   18.8612 H   0  0  0  0  0  0  0  0  0  0  0  0
   18.2060    1.5430   18.9841 H   0  0  0  0  0  0  0  0  0  0  0  0
   18.5805    0.8647   17.3954 H   0  0  0  0  0  0  0  0  0  0  0  0
   16.4076   -0.0429   19.3433 H   0  0  0  0  0  0  0  0  0  0  0  0
   14.7621    0.8875   17.8986 H   0  0  0  0  0  0  0  0  0  0  0  0
   15.9570    2.1282   18.2476 H   0  0  0  0  0  0  0  0  0  0  0  0
   15.7899    0.5136   15.8082 H   0  0  0  0  0  0  0  0  0  0  0  0
   13.9886    1.9280   15.7087 H   0  0  0  0  0  0  0  0  0  0  0  0
   14.9712    3.2946   16.3343 H   0  0  0  0  0  0  0  0  0  0  0  0
   17.2729    2.1648   15.0243 H   0  0  0  0  0  0  0  0  0  0  0  0
   17.2152    1.9347   14.9420 H   0  0  0  0  0  0  0  0  0  0  0  0
   14.4004    3.8725   11.7884 H   0  0  0  0  0  0  0  0  0  0  0  0
   17.5680   -0.6759   15.7981 H   0  0  0  0  0  0  0  0  0  0  0  0
   18.4719   -1.8327   16.7812 H   0  0  0  0  0  0  0  0  0  0  0  0
   17.4112   -3.4750   15.5008 H   0  0  0  0  0  0  0  0  0  0  0  0
   16.2374   -2.2939   14.8877 H   0  0  0  0  0  0  0  0  0  0  0  0
   16.1274   -3.8757   17.4700 H   0  0  0  0  0  0  0  0  0  0  0  0
   14.8176   -3.5670   16.3114 H   0  0  0  0  0  0  0  0  0  0  0  0
   14.9053   -2.0668   18.5178 H   0  0  0  0  0  0  0  0  0  0  0  0
   14.6841   -1.2454   16.9497 H   0  0  0  0  0  0  0  0  0  0  0  0
  1  2  1  0
  2  3  1  0
  3  4  1  0
  4  5  1  0
  5  6  1  0
  6  7  1  0
  6  8  2  3
  8  9  1  0
  2 10  1  0
 10 11  1  0
 11 12  1  0
 12 13  1  0
 13 14  1  0
 14 10  1  0
  1 15  1  0
  1 16  1  0
  1 17  1  0
  2 18  1  0
  3 19  1  0
  3 20  1  0
  4 21  1  0
  5 22  1  0
  5 23  1  0
  7 24  1  0
  7 25  1  0
  9 26  1  0
 11 27  1  0
 11 28  1  0
 12 29  1  0
 12 30  1  0
 13 31  1  0
 13 32  1  0
 14 33  1  0
 14 34  1  0
M  END
>  <Energy>  (635) 
230.58131957770843

>  <compound_id>  (635) 
54736

>  <target_id>  (635) 
1

>  <reference_id>  (635) 
124

>  <inspiration_ids>  (635) 
[124, 76]

>  <energy_score>  (635) 
142.2875021363352

>  <distance_score>  (635) 
2.0539605830047876

>  <path>  (635) 
/opt/xchem-fragalysis-2/maxwin/BulkDock/SCRATCH/511024/C54736-P124/C54736-P124.minimised.mol

>  <scratch_subdir>  (635) 
/opt/xchem-fragalysis-2/maxwin/BulkDock/SCRATCH/511024/C54736-P124

>  <fragmenstein_runtime>  (635) 
2.332732915878296

>  <fragmenstein_outcome>  (635) 
too moved

>  <fragmenstein_mode>  (635) 
expansion

>  <fragmenstein_error>  (635) 


$$$$
C54736-P76
     RDKit          3D

 34 34  0  0  0  0  0  0  0  0999 V2000
   18.1363    0.6673   18.3947 C   0  0  0  0  0  0  0  0  0  0  0  0
   16.7094    0.1134   18.3059 C   0  0  0  0  0  0  0  0  0  0  0  0
   15.7621    1.1837   17.6927 C   0  0  0  0  0  0  0  0  0  0  0  0
   15.9782    1.4030   16.2513 N   0  0  0  0  0  0  0  0  0  0  0  0
   14.9614    2.3491   15.7101 C   0  0  0  0  0  0  0  0  0  0  0  0
   15.4376    2.7271   14.2877 C   0  0  0  0  0  0  0  0  0  0  0  0
   16.8497    2.4632   14.1040 N   0  0  0  0  0  0  0  0  0  0  0  0
   14.5787    3.2147   13.5038 N   0  0  0  0  0  0  0  0  0  0  0  0
   15.1614    3.4917   12.2614 O   0  0  0  0  0  0  0  0  0  0  0  0
   16.6766   -1.2198   17.6951 N   0  0  0  0  0  0  0  0  0  0  0  0
   17.4819   -1.5049   16.5130 C   0  0  0  0  0  0  0  0  0  0  0  0
   16.7759   -2.6683   15.8192 C   0  0  0  0  0  0  0  0  0  0  0  0
   15.7353   -3.1395   16.8190 C   0  0  0  0  0  0  0  0  0  0  0  0
   15.3814   -1.8646   17.5592 C   0  0  0  0  0  0  0  0  0  0  0  0
   18.5560    0.9001   17.4105 H   0  0  0  0  0  0  0  0  0  0  0  0
   18.8029   -0.0491   18.8881 H   0  0  0  0  0  0  0  0  0  0  0  0
   18.1548    1.5880   18.9886 H   0  0  0  0  0  0  0  0  0  0  0  0
   16.3763   -0.0211   19.3444 H   0  0  0  0  0  0  0  0  0  0  0  0
   14.7320    0.8690   17.8703 H   0  0  0  0  0  0  0  0  0  0  0  0
   15.9017    2.1313   18.2277 H   0  0  0  0  0  0  0  0  0  0  0  0
   15.7894    0.5005   15.7961 H   0  0  0  0  0  0  0  0  0  0  0  0
   13.9719    1.8863   15.6611 H   0  0  0  0  0  0  0  0  0  0  0  0
   14.9204    3.2695   16.3022 H   0  0  0  0  0  0  0  0  0  0  0  0
   17.2598    2.1675   15.0249 H   0  0  0  0  0  0  0  0  0  0  0  0
   17.2059    1.9370   14.9410 H   0  0  0  0  0  0  0  0  0  0  0  0
   14.4142    3.8499   11.7521 H   0  0  0  0  0  0  0  0  0  0  0  0
   17.5805   -0.6684   15.8163 H   0  0  0  0  0  0  0  0  0  0  0  0
   18.4908   -1.8042   16.8177 H   0  0  0  0  0  0  0  0  0  0  0  0
   17.4654   -3.4702   15.5387 H   0  0  0  0  0  0  0  0  0  0  0  0
   16.2778   -2.3116   14.9095 H   0  0  0  0  0  0  0  0  0  0  0  0
   16.1752   -3.8746   17.5041 H   0  0  0  0  0  0  0  0  0  0  0  0
   14.8691   -3.5981   16.3338 H   0  0  0  0  0  0  0  0  0  0  0  0
   14.9149   -2.0764   18.5258 H   0  0  0  0  0  0  0  0  0  0  0  0
   14.6927   -1.2731   16.9486 H   0  0  0  0  0  0  0  0  0  0  0  0
  1  2  1  0
  2  3  1  0
  3  4  1  0
  4  5  1  0
  5  6  1  0
  6  7  1  0
  6  8  2  3
  8  9  1  0
  2 10  1  0
 10 11  1  0
 11 12  1  0
 12 13  1  0
 13 14  1  0
 14 10  1  0
  1 15  1  0
  1 16  1  0
  1 17  1  0
  2 18  1  0
  3 19  1  0
  3 20  1  0
  4 21  1  0
  5 22  1  0
  5 23  1  0
  7 24  1  0
  7 25  1  0
  9 26  1  0
 11 27  1  0
 11 28  1  0
 12 29  1  0
 12 30  1  0
 13 31  1  0
 13 32  1  0
 14 33  1  0
 14 34  1  0
M  END
>  <Energy>  (636) 
230.56423931235437

>  <compound_id>  (636) 
54736

>  <target_id>  (636) 
1

>  <reference_id>  (636) 
76

>  <inspiration_ids>  (636) 
[124, 76]

>  <energy_score>  (636) 
142.27042187098124

>  <distance_score>  (636) 
2.0955958847435268

>  <path>  (636) 
/opt/xchem-fragalysis-2/maxwin/BulkDock/SCRATCH/511024/C54736-P76/C54736-P76.minimised.mol

>  <scratch_subdir>  (636) 
/opt/xchem-fragalysis-2/maxwin/BulkDock/SCRATCH/511024/C54736-P76

>  <fragmenstein_runtime>  (636) 
2.203439950942993

>  <fragmenstein_outcome>  (636) 
too moved

>  <fragmenstein_mode>  (636) 
expansion

>  <fragmenstein_error>  (636) 


$$$$
C54738-P124
     RDKit          3D

 35 35  0  0  0  0  0  0  0  0999 V2000
   16.3667    1.5778   18.3501 C   0  0  0  0  0  0  0  0  0  0  0  0
   15.6701    0.2292   18.5030 C   0  0  0  0  0  0  0  0  0  0  0  0
   15.7235   -0.6834   17.3472 N   0  0  0  0  0  0  0  0  0  0  0  0
   17.0412   -1.3302   17.2120 C   0  0  0  0  0  0  0  0  0  0  0  0
   16.9453   -2.8097   16.8047 C   0  0  0  0  0  0  0  0  0  0  0  0
   18.2209   -3.2864   16.3928 O   0  0  0  0  0  0  0  0  0  0  0  0
   15.2882   -0.0146   16.1103 C   0  0  0  0  0  0  0  0  0  0  0  0
   15.1238   -0.8960   14.8779 C   0  0  0  0  0  0  0  0  0  0  0  0
   14.0296   -1.9637   14.8560 C   0  0  0  0  0  0  0  0  0  0  0  0
   12.6824   -1.4801   14.3603 C   0  0  0  0  0  0  0  0  0  0  0  0
   11.7258   -2.5709   14.7940 C   0  0  0  0  0  0  0  0  0  0  0  0
   12.2399   -3.0241   16.0810 N   0  0  0  0  0  0  0  0  0  0  0  0
   13.6913   -2.7985   16.0958 C   0  0  0  0  0  0  0  0  0  0  0  0
   15.8700    2.2128   17.6102 H   0  0  0  0  0  0  0  0  0  0  0  0
   16.3451    2.1149   19.3043 H   0  0  0  0  0  0  0  0  0  0  0  0
   17.4152    1.4552   18.0610 H   0  0  0  0  0  0  0  0  0  0  0  0
   14.6198    0.4198   18.7408 H   0  0  0  0  0  0  0  0  0  0  0  0
   16.0627   -0.2819   19.3913 H   0  0  0  0  0  0  0  0  0  0  0  0
   17.5887   -1.3123   18.1643 H   0  0  0  0  0  0  0  0  0  0  0  0
   17.6885   -0.7797   16.5163 H   0  0  0  0  0  0  0  0  0  0  0  0
   16.5939   -3.4172   17.6453 H   0  0  0  0  0  0  0  0  0  0  0  0
   16.2874   -2.9796   15.9596 H   0  0  0  0  0  0  0  0  0  0  0  0
   18.1010   -4.2090   16.1093 H   0  0  0  0  0  0  0  0  0  0  0  0
   16.0094    0.7689   15.8424 H   0  0  0  0  0  0  0  0  0  0  0  0
   14.3383    0.4983   16.2775 H   0  0  0  0  0  0  0  0  0  0  0  0
   14.9447   -0.2243   14.0254 H   0  0  0  0  0  0  0  0  0  0  0  0
   16.0879   -1.3574   14.6341 H   0  0  0  0  0  0  0  0  0  0  0  0
   14.3876   -2.6285   14.0722 H   0  0  0  0  0  0  0  0  0  0  0  0
   12.4437   -0.5256   14.8160 H   0  0  0  0  0  0  0  0  0  0  0  0
   12.6707   -1.3404   13.2758 H   0  0  0  0  0  0  0  0  0  0  0  0
   10.7012   -2.2032   14.8906 H   0  0  0  0  0  0  0  0  0  0  0  0
   11.7269   -3.3874   14.0662 H   0  0  0  0  0  0  0  0  0  0  0  0
   12.0215   -4.0094   16.2348 H   0  0  0  0  0  0  0  0  0  0  0  0
   14.2110   -3.7613   16.0715 H   0  0  0  0  0  0  0  0  0  0  0  0
   13.9390   -2.3206   17.0406 H   0  0  0  0  0  0  0  0  0  0  0  0
  1  2  1  0
  2  3  1  0
  3  4  1  0
  4  5  1  0
  5  6  1  0
  3  7  1  0
  7  8  1  0
  8  9  1  0
  9 10  1  0
 10 11  1  0
 11 12  1  0
 12 13  1  0
 13  9  1  0
  1 14  1  0
  1 15  1  0
  1 16  1  0
  2 17  1  0
  2 18  1  0
  4 19  1  0
  4 20  1  0
  5 21  1  0
  5 22  1  0
  6 23  1  0
  7 24  1  0
  7 25  1  0
  8 26  1  0
  8 27  1  0
  9 28  1  0
 10 29  1  0
 10 30  1  0
 11 31  1  0
 11 32  1  0
 12 33  1  0
 13 34  1  0
 13 35  1  0
M  END
>  <Energy>  (637) 
42.815345537084355

>  <compound_id>  (637) 
54738

>  <target_id>  (637) 
1

>  <reference_id>  (637) 
124

>  <inspiration_ids>  (637) 
[124, 76]

>  <energy_score>  (637) 
-20.618360817987053

>  <distance_score>  (637) 
1.0482093005250437

>  <path>  (637) 
/opt/xchem-fragalysis-2/maxwin/BulkDock/SCRATCH/511024/C54738-P124/C54738-P124.minimised.mol

>  <scratch_subdir>  (637) 
/opt/xchem-fragalysis-2/maxwin/BulkDock/SCRATCH/511024/C54738-P124

>  <fragmenstein_runtime>  (637) 
37.711901903152466

>  <fragmenstein_outcome>  (637) 
too moved

>  <fragmenstein_mode>  (637) 
expansion

>  <fragmenstein_error>  (637) 


$$$$
C54738-P76
     RDKit          3D

 35 35  0  0  0  0  0  0  0  0999 V2000
   16.2722    1.6417   18.4560 C   0  0  0  0  0  0  0  0  0  0  0  0
   15.6179    0.2676   18.5678 C   0  0  0  0  0  0  0  0  0  0  0  0
   15.7940   -0.6415   17.4208 N   0  0  0  0  0  0  0  0  0  0  0  0
   17.1432   -1.2428   17.3925 C   0  0  0  0  0  0  0  0  0  0  0  0
   17.1179   -2.7791   17.2792 C   0  0  0  0  0  0  0  0  0  0  0  0
   17.3775   -3.2457   15.9611 O   0  0  0  0  0  0  0  0  0  0  0  0
   15.4112    0.0062   16.1594 C   0  0  0  0  0  0  0  0  0  0  0  0
   15.3175   -0.9112   14.9496 C   0  0  0  0  0  0  0  0  0  0  0  0
   14.2157   -1.9668   14.9056 C   0  0  0  0  0  0  0  0  0  0  0  0
   12.8877   -1.4635   14.3774 C   0  0  0  0  0  0  0  0  0  0  0  0
   11.8959   -2.5267   14.8011 C   0  0  0  0  0  0  0  0  0  0  0  0
   12.3882   -3.0208   16.0828 N   0  0  0  0  0  0  0  0  0  0  0  0
   13.8345   -2.7683   16.1516 C   0  0  0  0  0  0  0  0  0  0  0  0
   15.8076    2.2530   17.6764 H   0  0  0  0  0  0  0  0  0  0  0  0
   16.1594    2.1822   19.4018 H   0  0  0  0  0  0  0  0  0  0  0  0
   17.3430    1.5592   18.2454 H   0  0  0  0  0  0  0  0  0  0  0  0
   14.5471    0.4166   18.7278 H   0  0  0  0  0  0  0  0  0  0  0  0
   15.9635   -0.2265   19.4850 H   0  0  0  0  0  0  0  0  0  0  0  0
   17.6584   -1.0193   18.3361 H   0  0  0  0  0  0  0  0  0  0  0  0
   17.7673   -0.8019   16.6054 H   0  0  0  0  0  0  0  0  0  0  0  0
   17.9267   -3.1797   17.9011 H   0  0  0  0  0  0  0  0  0  0  0  0
   16.1938   -3.2212   17.6633 H   0  0  0  0  0  0  0  0  0  0  0  0
   16.5241   -3.3622   15.5139 H   0  0  0  0  0  0  0  0  0  0  0  0
   16.1332    0.7961   15.9135 H   0  0  0  0  0  0  0  0  0  0  0  0
   14.4436    0.5042   16.2736 H   0  0  0  0  0  0  0  0  0  0  0  0
   15.1935   -0.2680   14.0661 H   0  0  0  0  0  0  0  0  0  0  0  0
   16.2880   -1.3863   14.7817 H   0  0  0  0  0  0  0  0  0  0  0  0
   14.5904   -2.6479   14.1430 H   0  0  0  0  0  0  0  0  0  0  0  0
   12.6630   -0.4996   14.8222 H   0  0  0  0  0  0  0  0  0  0  0  0
   12.8996   -1.3325   13.2909 H   0  0  0  0  0  0  0  0  0  0  0  0
   10.8842   -2.1255   14.9012 H   0  0  0  0  0  0  0  0  0  0  0  0
   11.8651   -3.3315   14.0612 H   0  0  0  0  0  0  0  0  0  0  0  0
   12.1850   -4.0145   16.1933 H   0  0  0  0  0  0  0  0  0  0  0  0
   14.3788   -3.7170   16.1854 H   0  0  0  0  0  0  0  0  0  0  0  0
   14.0202   -2.2512   17.0895 H   0  0  0  0  0  0  0  0  0  0  0  0
  1  2  1  0
  2  3  1  0
  3  4  1  0
  4  5  1  0
  5  6  1  0
  3  7  1  0
  7  8  1  0
  8  9  1  0
  9 10  1  0
 10 11  1  0
 11 12  1  0
 12 13  1  0
 13  9  1  0
  1 14  1  0
  1 15  1  0
  1 16  1  0
  2 17  1  0
  2 18  1  0
  4 19  1  0
  4 20  1  0
  5 21  1  0
  5 22  1  0
  6 23  1  0
  7 24  1  0
  7 25  1  0
  8 26  1  0
  8 27  1  0
  9 28  1  0
 10 29  1  0
 10 30  1  0
 11 31  1  0
 11 32  1  0
 12 33  1  0
 13 34  1  0
 13 35  1  0
M  END
>  <Energy>  (638) 
44.012287477459793

>  <compound_id>  (638) 
54738

>  <target_id>  (638) 
1

>  <reference_id>  (638) 
76

>  <inspiration_ids>  (638) 
[124, 76]

>  <energy_score>  (638) 
-19.42141887761065

>  <distance_score>  (638) 
1.12796817510908

>  <path>  (638) 
/opt/xchem-fragalysis-2/maxwin/BulkDock/SCRATCH/511024/C54738-P76/C54738-P76.minimised.mol

>  <scratch_subdir>  (638) 
/opt/xchem-fragalysis-2/maxwin/BulkDock/SCRATCH/511024/C54738-P76

>  <fragmenstein_runtime>  (638) 
37.721646308898926

>  <fragmenstein_outcome>  (638) 
too moved

>  <fragmenstein_mode>  (638) 
expansion

>  <fragmenstein_error>  (638) 


$$$$
C54739-P124
     RDKit          3D

 35 35  0  0  0  0  0  0  0  0999 V2000
   12.6753    4.8625   12.1439 C   0  0  0  0  0  0  0  0  0  0  0  0
   13.5619    4.4174   13.1779 N   0  0  0  0  0  0  0  0  0  0  0  0
   14.3046    3.0675   13.3551 C   0  0  0  0  0  0  0  0  0  0  0  0
   14.2477    2.0851   12.7275 O   0  0  0  0  0  0  0  0  0  0  0  0
   15.1572    3.1881   14.6113 C   0  0  0  0  0  0  0  0  0  0  0  0
   14.3250    2.7982   15.8290 C   0  0  0  0  0  0  0  0  0  0  0  0
   15.0230    2.9961   17.1070 N   0  0  0  0  0  0  0  0  0  0  0  0
   16.1296    2.0563   17.3580 C   0  0  0  0  0  0  0  0  0  0  0  0
   15.7407    0.6747   17.9483 C   0  0  0  0  0  0  0  0  0  0  0  0
   16.1777   -0.4629   17.1338 N   0  0  0  0  0  0  0  0  0  0  0  0
   15.4941   -0.5697   15.8431 C   0  0  0  0  0  0  0  0  0  0  0  0
   15.6837   -2.0207   15.4230 C   0  0  0  0  0  0  0  0  0  0  0  0
   16.1702   -2.7422   16.6713 C   0  0  0  0  0  0  0  0  0  0  0  0
   15.9537   -1.7474   17.7976 C   0  0  0  0  0  0  0  0  0  0  0  0
   12.5534    4.0720   11.4002 H   0  0  0  0  0  0  0  0  0  0  0  0
   13.1021    5.7542   11.6799 H   0  0  0  0  0  0  0  0  0  0  0  0
   11.7111    5.1072   12.5946 H   0  0  0  0  0  0  0  0  0  0  0  0
   13.7862    5.0319   13.9525 H   0  0  0  0  0  0  0  0  0  0  0  0
   15.5519    4.2062   14.7061 H   0  0  0  0  0  0  0  0  0  0  0  0
   16.0233    2.5305   14.4812 H   0  0  0  0  0  0  0  0  0  0  0  0
   13.4262    3.4268   15.8557 H   0  0  0  0  0  0  0  0  0  0  0  0
   13.9606    1.7733   15.7336 H   0  0  0  0  0  0  0  0  0  0  0  0
   14.3562    2.9360   17.8748 H   0  0  0  0  0  0  0  0  0  0  0  0
   16.7698    2.5470   18.1030 H   0  0  0  0  0  0  0  0  0  0  0  0
   16.7756    1.9548   16.4794 H   0  0  0  0  0  0  0  0  0  0  0  0
   16.2304    0.5992   18.9287 H   0  0  0  0  0  0  0  0  0  0  0  0
   14.6702    0.6212   18.1539 H   0  0  0  0  0  0  0  0  0  0  0  0
   15.9118    0.1123   15.0973 H   0  0  0  0  0  0  0  0  0  0  0  0
   14.4211   -0.3740   15.9350 H   0  0  0  0  0  0  0  0  0  0  0  0
   16.4193   -2.1156   14.6169 H   0  0  0  0  0  0  0  0  0  0  0  0
   14.7377   -2.4428   15.0689 H   0  0  0  0  0  0  0  0  0  0  0  0
   17.2367   -2.9773   16.5697 H   0  0  0  0  0  0  0  0  0  0  0  0
   15.6338   -3.6811   16.8396 H   0  0  0  0  0  0  0  0  0  0  0  0
   16.6532   -1.9152   18.6223 H   0  0  0  0  0  0  0  0  0  0  0  0
   14.9287   -1.8313   18.1810 H   0  0  0  0  0  0  0  0  0  0  0  0
  1  2  1  0
  2  3  1  0
  3  4  2  0
  3  5  1  0
  5  6  1  0
  6  7  1  0
  7  8  1  0
  8  9  1  0
  9 10  1  0
 10 11  1  0
 11 12  1  0
 12 13  1  0
 13 14  1  0
 14 10  1  0
  1 15  1  0
  1 16  1  0
  1 17  1  0
  2 18  1  0
  5 19  1  0
  5 20  1  0
  6 21  1  0
  6 22  1  0
  7 23  1  0
  8 24  1  0
  8 25  1  0
  9 26  1  0
  9 27  1  0
 11 28  1  0
 11 29  1  0
 12 30  1  0
 12 31  1  0
 13 32  1  0
 13 33  1  0
 14 34  1  0
 14 35  1  0
M  END
>  <Energy>  (639) 
28.223566568875832

>  <compound_id>  (639) 
54739

>  <target_id>  (639) 
1

>  <reference_id>  (639) 
124

>  <inspiration_ids>  (639) 
[124, 76]

>  <energy_score>  (639) 
-2.9886539123955345

>  <distance_score>  (639) 
1.543879507392669

>  <path>  (639) 
/opt/xchem-fragalysis-2/maxwin/BulkDock/SCRATCH/511024/C54739-P124/C54739-P124.minimised.mol

>  <scratch_subdir>  (639) 
/opt/xchem-fragalysis-2/maxwin/BulkDock/SCRATCH/511024/C54739-P124

>  <fragmenstein_runtime>  (639) 
1.338219165802002

>  <fragmenstein_outcome>  (639) 
too moved

>  <fragmenstein_mode>  (639) 
expansion

>  <fragmenstein_error>  (639) 


$$$$
C54739-P76
     RDKit          3D

 35 35  0  0  0  0  0  0  0  0999 V2000
   14.0337    5.2693   11.5436 C   0  0  0  0  0  0  0  0  0  0  0  0
   14.4271    4.3043   12.5293 N   0  0  0  0  0  0  0  0  0  0  0  0
   15.7063    4.0265   13.1157 C   0  0  0  0  0  0  0  0  0  0  0  0
   16.7596    4.5801   12.9915 O   0  0  0  0  0  0  0  0  0  0  0  0
   15.5975    2.8413   14.0685 C   0  0  0  0  0  0  0  0  0  0  0  0
   15.0809    3.3064   15.4277 C   0  0  0  0  0  0  0  0  0  0  0  0
   14.8480    2.2024   16.3594 N   0  0  0  0  0  0  0  0  0  0  0  0
   16.0749    1.7273   17.0123 C   0  0  0  0  0  0  0  0  0  0  0  0
   15.8115    0.4676   17.8750 C   0  0  0  0  0  0  0  0  0  0  0  0
   15.9133   -0.8512   17.2415 N   0  0  0  0  0  0  0  0  0  0  0  0
   15.3553   -0.9975   15.9035 C   0  0  0  0  0  0  0  0  0  0  0  0
   15.8145   -2.3952   15.5259 C   0  0  0  0  0  0  0  0  0  0  0  0
   17.1620   -2.5562   16.2191 C   0  0  0  0  0  0  0  0  0  0  0  0
   17.2849   -1.3494   17.1424 C   0  0  0  0  0  0  0  0  0  0  0  0
   13.6055    4.7387   10.6903 H   0  0  0  0  0  0  0  0  0  0  0  0
   13.2800    5.9263   11.9832 H   0  0  0  0  0  0  0  0  0  0  0  0
   14.9019    5.8518   11.2273 H   0  0  0  0  0  0  0  0  0  0  0  0
   13.7378    3.6756   12.9266 H   0  0  0  0  0  0  0  0  0  0  0  0
   16.5906    2.3852   14.1543 H   0  0  0  0  0  0  0  0  0  0  0  0
   14.9421    2.0773   13.6326 H   0  0  0  0  0  0  0  0  0  0  0  0
   15.7546    4.0531   15.8663 H   0  0  0  0  0  0  0  0  0  0  0  0
   14.1218    3.8203   15.2919 H   0  0  0  0  0  0  0  0  0  0  0  0
   14.3804    1.4333   15.8838 H   0  0  0  0  0  0  0  0  0  0  0  0
   16.4353    2.5214   17.6776 H   0  0  0  0  0  0  0  0  0  0  0  0
   16.8739    1.5284   16.2904 H   0  0  0  0  0  0  0  0  0  0  0  0
   16.4993    0.4931   18.7313 H   0  0  0  0  0  0  0  0  0  0  0  0
   14.8176    0.5471   18.3304 H   0  0  0  0  0  0  0  0  0  0  0  0
   15.7749   -0.2791   15.1901 H   0  0  0  0  0  0  0  0  0  0  0  0
   14.2657   -0.9228   15.8839 H   0  0  0  0  0  0  0  0  0  0  0  0
   15.8922   -2.5250   14.4421 H   0  0  0  0  0  0  0  0  0  0  0  0
   15.1116   -3.1455   15.9080 H   0  0  0  0  0  0  0  0  0  0  0  0
   17.9821   -2.5771   15.4936 H   0  0  0  0  0  0  0  0  0  0  0  0
   17.1862   -3.4955   16.7828 H   0  0  0  0  0  0  0  0  0  0  0  0
   17.9562   -0.6070   16.6936 H   0  0  0  0  0  0  0  0  0  0  0  0
   17.6888   -1.6362   18.1187 H   0  0  0  0  0  0  0  0  0  0  0  0
  1  2  1  0
  2  3  1  0
  3  4  2  0
  3  5  1  0
  5  6  1  0
  6  7  1  0
  7  8  1  0
  8  9  1  0
  9 10  1  0
 10 11  1  0
 11 12  1  0
 12 13  1  0
 13 14  1  0
 14 10  1  0
  1 15  1  0
  1 16  1  0
  1 17  1  0
  2 18  1  0
  5 19  1  0
  5 20  1  0
  6 21  1  0
  6 22  1  0
  7 23  1  0
  8 24  1  0
  8 25  1  0
  9 26  1  0
  9 27  1  0
 11 28  1  0
 11 29  1  0
 12 30  1  0
 12 31  1  0
 13 32  1  0
 13 33  1  0
 14 34  1  0
 14 35  1  0
M  END
>  <Energy>  (640) 
20.375902253503856

>  <compound_id>  (640) 
54739

>  <target_id>  (640) 
1

>  <reference_id>  (640) 
76

>  <inspiration_ids>  (640) 
[124, 76]

>  <energy_score>  (640) 
-12.029089162176447

>  <distance_score>  (640) 
1.6726875883845678

>  <path>  (640) 
/opt/xchem-fragalysis-2/maxwin/BulkDock/SCRATCH/511024/C54739-P76/C54739-P76.minimised.mol

>  <scratch_subdir>  (640) 
/opt/xchem-fragalysis-2/maxwin/BulkDock/SCRATCH/511024/C54739-P76

>  <fragmenstein_runtime>  (640) 
1.1613664627075195

>  <fragmenstein_outcome>  (640) 
too moved

>  <fragmenstein_mode>  (640) 
expansion

>  <fragmenstein_error>  (640) 


$$$$
C54740-P124
     RDKit          3D

 32 32  0  0  0  0  0  0  0  0999 V2000
   15.7900    0.5209   16.6653 C   0  0  0  0  0  0  0  0  0  0  0  0
   15.9161   -0.9304   16.7412 N   0  0  0  0  0  0  0  0  0  0  0  0
   14.8128   -1.5471   17.5065 C   0  0  0  0  0  0  0  0  0  0  0  0
   13.7219   -2.2500   16.6222 C   0  0  0  0  0  0  0  0  0  0  0  0
   13.2740   -1.4947   15.3491 C   0  0  0  0  0  0  0  0  0  0  0  0
   14.2194   -1.9445   14.2656 C   0  0  0  0  0  0  0  0  0  0  0  0
   15.0651   -2.9397   14.9430 N   0  0  0  0  0  0  0  0  0  0  0  0
   14.2311   -3.5087   16.0116 C   0  0  0  0  0  0  0  0  0  0  0  0
   17.2496   -1.3107   17.2573 C   0  0  0  0  0  0  0  0  0  0  0  0
   17.7187   -2.7479   16.9534 C   0  0  0  0  0  0  0  0  0  0  0  0
   16.6870   -3.6031   17.1387 F   0  0  0  0  0  0  0  0  0  0  0  0
   18.6429   -3.0912   17.9043 F   0  0  0  0  0  0  0  0  0  0  0  0
   18.3461   -3.0241   15.5808 C   0  0  0  0  0  0  0  0  0  0  0  0
   17.6766   -2.4972   14.4420 O   0  0  0  0  0  0  0  0  0  0  0  0
   14.8234    0.8291   16.2605 H   0  0  0  0  0  0  0  0  0  0  0  0
   16.5486    0.9367   15.9925 H   0  0  0  0  0  0  0  0  0  0  0  0
   15.9097    0.9916   17.6480 H   0  0  0  0  0  0  0  0  0  0  0  0
   14.3689   -0.7990   18.1698 H   0  0  0  0  0  0  0  0  0  0  0  0
   15.1888   -2.3013   18.2101 H   0  0  0  0  0  0  0  0  0  0  0  0
   12.8682   -2.5301   17.2425 H   0  0  0  0  0  0  0  0  0  0  0  0
   12.2492   -1.7912   15.0906 H   0  0  0  0  0  0  0  0  0  0  0  0
   13.2977   -0.4088   15.4276 H   0  0  0  0  0  0  0  0  0  0  0  0
   14.8330   -1.1207   13.8852 H   0  0  0  0  0  0  0  0  0  0  0  0
   13.6744   -2.3610   13.4131 H   0  0  0  0  0  0  0  0  0  0  0  0
   15.7592   -2.3476   15.4221 H   0  0  0  0  0  0  0  0  0  0  0  0
   13.3783   -4.0897   15.6532 H   0  0  0  0  0  0  0  0  0  0  0  0
   14.7693   -4.1541   16.7009 H   0  0  0  0  0  0  0  0  0  0  0  0
   17.2735   -1.1516   18.3439 H   0  0  0  0  0  0  0  0  0  0  0  0
   18.0171   -0.6382   16.8512 H   0  0  0  0  0  0  0  0  0  0  0  0
   18.4594   -4.1045   15.4378 H   0  0  0  0  0  0  0  0  0  0  0  0
   19.3567   -2.6016   15.5710 H   0  0  0  0  0  0  0  0  0  0  0  0
   16.9132   -3.0882   14.2419 H   0  0  0  0  0  0  0  0  0  0  0  0
  1  2  1  0
  2  3  1  0
  3  4  1  0
  4  5  1  0
  5  6  1  0
  6  7  1  0
  7  8  1  0
  2  9  1  0
  9 10  1  0
 10 11  1  0
 10 12  1  0
 10 13  1  0
 13 14  1  0
  8  4  1  0
  1 15  1  0
  1 16  1  0
  1 17  1  0
  3 18  1  0
  3 19  1  0
  4 20  1  0
  5 21  1  0
  5 22  1  0
  6 23  1  0
  6 24  1  0
  7 25  1  0
  8 26  1  0
  8 27  1  0
  9 28  1  0
  9 29  1  0
 13 30  1  0
 13 31  1  0
 14 32  1  0
M  END
>  <Energy>  (641) 
111.97997677083593

>  <compound_id>  (641) 
54740

>  <target_id>  (641) 
1

>  <reference_id>  (641) 
124

>  <inspiration_ids>  (641) 
[124, 76]

>  <energy_score>  (641) 
-17.414684289457597

>  <distance_score>  (641) 
1.9280698880604217

>  <path>  (641) 
/opt/xchem-fragalysis-2/maxwin/BulkDock/SCRATCH/511024/C54740-P124/C54740-P124.minimised.mol

>  <scratch_subdir>  (641) 
/opt/xchem-fragalysis-2/maxwin/BulkDock/SCRATCH/511024/C54740-P124

>  <fragmenstein_runtime>  (641) 
26.77593684196472

>  <fragmenstein_outcome>  (641) 
too moved

>  <fragmenstein_mode>  (641) 
expansion

>  <fragmenstein_error>  (641) 


$$$$
C54740-P76
     RDKit          3D

 32 32  0  0  0  0  0  0  0  0999 V2000
   15.8016    0.5417   16.6988 C   0  0  0  0  0  0  0  0  0  0  0  0
   15.9349   -0.9079   16.7902 N   0  0  0  0  0  0  0  0  0  0  0  0
   14.8386   -1.5215   17.5682 C   0  0  0  0  0  0  0  0  0  0  0  0
   13.7493   -2.2413   16.6954 C   0  0  0  0  0  0  0  0  0  0  0  0
   13.3132   -1.5111   15.4043 C   0  0  0  0  0  0  0  0  0  0  0  0
   14.2811   -1.9654   14.3450 C   0  0  0  0  0  0  0  0  0  0  0  0
   15.1002   -2.9717   15.0410 N   0  0  0  0  0  0  0  0  0  0  0  0
   14.2552   -3.5171   16.1144 C   0  0  0  0  0  0  0  0  0  0  0  0
   17.2754   -1.2779   17.2953 C   0  0  0  0  0  0  0  0  0  0  0  0
   17.7507   -2.7147   16.9981 C   0  0  0  0  0  0  0  0  0  0  0  0
   16.7229   -3.5716   17.1961 F   0  0  0  0  0  0  0  0  0  0  0  0
   18.6819   -3.0470   17.9460 F   0  0  0  0  0  0  0  0  0  0  0  0
   18.3713   -2.9990   15.6232 C   0  0  0  0  0  0  0  0  0  0  0  0
   17.6916   -2.4871   14.4831 O   0  0  0  0  0  0  0  0  0  0  0  0
   16.5503    0.9529   16.0124 H   0  0  0  0  0  0  0  0  0  0  0  0
   15.9308    1.0239   17.6747 H   0  0  0  0  0  0  0  0  0  0  0  0
   14.8287    0.8415   16.3026 H   0  0  0  0  0  0  0  0  0  0  0  0
   14.3882   -0.7671   18.2209 H   0  0  0  0  0  0  0  0  0  0  0  0
   15.2224   -2.2633   18.2808 H   0  0  0  0  0  0  0  0  0  0  0  0
   12.8907   -2.5007   17.3163 H   0  0  0  0  0  0  0  0  0  0  0  0
   12.2961   -1.8233   15.1347 H   0  0  0  0  0  0  0  0  0  0  0  0
   13.3272   -0.4243   15.4629 H   0  0  0  0  0  0  0  0  0  0  0  0
   14.9139   -1.1461   13.9863 H   0  0  0  0  0  0  0  0  0  0  0  0
   13.7548   -2.3656   13.4732 H   0  0  0  0  0  0  0  0  0  0  0  0
   15.7998   -2.3880   15.5191 H   0  0  0  0  0  0  0  0  0  0  0  0
   13.4017   -4.0997   15.7598 H   0  0  0  0  0  0  0  0  0  0  0  0
   14.7838   -4.1589   16.8184 H   0  0  0  0  0  0  0  0  0  0  0  0
   17.3088   -1.1105   18.3805 H   0  0  0  0  0  0  0  0  0  0  0  0
   18.0352   -0.6042   16.8770 H   0  0  0  0  0  0  0  0  0  0  0  0
   18.4912   -4.0798   15.4894 H   0  0  0  0  0  0  0  0  0  0  0  0
   19.3789   -2.5697   15.6034 H   0  0  0  0  0  0  0  0  0  0  0  0
   16.9337   -3.0880   14.2912 H   0  0  0  0  0  0  0  0  0  0  0  0
  1  2  1  0
  2  3  1  0
  3  4  1  0
  4  5  1  0
  5  6  1  0
  6  7  1  0
  7  8  1  0
  2  9  1  0
  9 10  1  0
 10 11  1  0
 10 12  1  0
 10 13  1  0
 13 14  1  0
  8  4  1  0
  1 15  1  0
  1 16  1  0
  1 17  1  0
  3 18  1  0
  3 19  1  0
  4 20  1  0
  5 21  1  0
  5 22  1  0
  6 23  1  0
  6 24  1  0
  7 25  1  0
  8 26  1  0
  8 27  1  0
  9 28  1  0
  9 29  1  0
 13 30  1  0
 13 31  1  0
 14 32  1  0
M  END
>  <Energy>  (642) 
112.78568425592964

>  <compound_id>  (642) 
54740

>  <target_id>  (642) 
1

>  <reference_id>  (642) 
76

>  <inspiration_ids>  (642) 
[124, 76]

>  <energy_score>  (642) 
-16.60897680436392

>  <distance_score>  (642) 
1.9151624072631244

>  <path>  (642) 
/opt/xchem-fragalysis-2/maxwin/BulkDock/SCRATCH/511024/C54740-P76/C54740-P76.minimised.mol

>  <scratch_subdir>  (642) 
/opt/xchem-fragalysis-2/maxwin/BulkDock/SCRATCH/511024/C54740-P76

>  <fragmenstein_runtime>  (642) 
27.151575565338135

>  <fragmenstein_outcome>  (642) 
too moved

>  <fragmenstein_mode>  (642) 
expansion

>  <fragmenstein_error>  (642) 


$$$$
C54741-P124
     RDKit          3D

 35 35  0  0  0  0  0  0  0  0999 V2000
   15.6898    3.2128   13.3937 C   0  0  0  0  0  0  0  0  0  0  0  0
   15.0923    2.7860   14.6597 N   0  0  0  0  0  0  0  0  0  0  0  0
   15.5158    1.4430   15.0743 C   0  0  0  0  0  0  0  0  0  0  0  0
   15.3450    0.3496   14.0051 C   0  0  0  0  0  0  0  0  0  0  0  0
   15.5689   -1.0639   14.5655 C   0  0  0  0  0  0  0  0  0  0  0  0
   14.4054   -1.5546   15.4299 C   0  0  0  0  0  0  0  0  0  0  0  0
   13.1191   -1.7742   14.6438 C   0  0  0  0  0  0  0  0  0  0  0  0
   12.3351   -2.7724   15.4744 C   0  0  0  0  0  0  0  0  0  0  0  0
   13.3537   -3.3993   16.4154 C   0  0  0  0  0  0  0  0  0  0  0  0
   14.6715   -2.8591   16.0531 N   0  0  0  0  0  0  0  0  0  0  0  0
   15.3087    3.8282   15.6876 C   0  0  0  0  0  0  0  0  0  0  0  0
   14.5013    3.5673   16.9968 C   0  0  0  0  0  0  0  0  0  0  0  0
   15.3148    2.8428   17.9643 N   0  0  0  0  0  0  0  0  0  0  0  0
   13.3787    3.9846   17.0777 O   0  0  0  0  0  0  0  0  0  0  0  0
   15.3580    4.2229   13.1265 H   0  0  0  0  0  0  0  0  0  0  0  0
   15.3726    2.5725   12.5646 H   0  0  0  0  0  0  0  0  0  0  0  0
   16.7845    3.2143   13.4409 H   0  0  0  0  0  0  0  0  0  0  0  0
   14.9197    1.1562   15.9437 H   0  0  0  0  0  0  0  0  0  0  0  0
   16.5669    1.4593   15.3904 H   0  0  0  0  0  0  0  0  0  0  0  0
   16.0837    0.5078   13.2098 H   0  0  0  0  0  0  0  0  0  0  0  0
   14.3558    0.4212   13.5389 H   0  0  0  0  0  0  0  0  0  0  0  0
   15.7160   -1.7533   13.7237 H   0  0  0  0  0  0  0  0  0  0  0  0
   16.5002   -1.0797   15.1457 H   0  0  0  0  0  0  0  0  0  0  0  0
   14.2465   -0.8424   16.2403 H   0  0  0  0  0  0  0  0  0  0  0  0
   13.3237   -2.1958   13.6526 H   0  0  0  0  0  0  0  0  0  0  0  0
   12.5573   -0.8485   14.4930 H   0  0  0  0  0  0  0  0  0  0  0  0
   11.8454   -3.5077   14.8317 H   0  0  0  0  0  0  0  0  0  0  0  0
   11.5444   -2.2737   16.0397 H   0  0  0  0  0  0  0  0  0  0  0  0
   13.3430   -4.4897   16.3554 H   0  0  0  0  0  0  0  0  0  0  0  0
   13.1302   -3.1373   17.4525 H   0  0  0  0  0  0  0  0  0  0  0  0
   15.1081   -3.4747   15.3662 H   0  0  0  0  0  0  0  0  0  0  0  0
   14.9550    4.7993   15.3155 H   0  0  0  0  0  0  0  0  0  0  0  0
   16.3753    3.9576   15.9082 H   0  0  0  0  0  0  0  0  0  0  0  0
   16.1940    2.5408   17.5078 H   0  0  0  0  0  0  0  0  0  0  0  0
   16.2766    2.7466   17.5925 H   0  0  0  0  0  0  0  0  0  0  0  0
  1  2  1  0
  2  3  1  0
  3  4  1  0
  4  5  1  0
  5  6  1  0
  6  7  1  0
  7  8  1  0
  8  9  1  0
  9 10  1  0
  2 11  1  0
 11 12  1  0
 12 13  1  0
 12 14  2  0
 10  6  1  0
  1 15  1  0
  1 16  1  0
  1 17  1  0
  3 18  1  0
  3 19  1  0
  4 20  1  0
  4 21  1  0
  5 22  1  0
  5 23  1  0
  6 24  1  0
  7 25  1  0
  7 26  1  0
  8 27  1  0
  8 28  1  0
  9 29  1  0
  9 30  1  0
 10 31  1  0
 11 32  1  0
 11 33  1  0
 13 34  1  0
 13 35  1  0
M  END
>  <Energy>  (643) 
209.28506952765116

>  <compound_id>  (643) 
54741

>  <target_id>  (643) 
1

>  <reference_id>  (643) 
124

>  <inspiration_ids>  (643) 
[124, 76]

>  <energy_score>  (643) 
129.62659491487958

>  <distance_score>  (643) 
2.2298158211505297

>  <path>  (643) 
/opt/xchem-fragalysis-2/maxwin/BulkDock/SCRATCH/511024/C54741-P124/C54741-P124.minimised.mol

>  <scratch_subdir>  (643) 
/opt/xchem-fragalysis-2/maxwin/BulkDock/SCRATCH/511024/C54741-P124

>  <fragmenstein_runtime>  (643) 
2.2903757095336914

>  <fragmenstein_outcome>  (643) 
too moved

>  <fragmenstein_mode>  (643) 
expansion

>  <fragmenstein_error>  (643) 


$$$$
C54741-P76
     RDKit          3D

 35 35  0  0  0  0  0  0  0  0999 V2000
   16.6827    2.5791   13.6145 C   0  0  0  0  0  0  0  0  0  0  0  0
   15.7018    2.1355   14.6211 N   0  0  0  0  0  0  0  0  0  0  0  0
   14.4731    1.6430   13.9376 C   0  0  0  0  0  0  0  0  0  0  0  0
   14.6613    0.3279   13.1618 C   0  0  0  0  0  0  0  0  0  0  0  0
   15.0969   -0.8739   14.0097 C   0  0  0  0  0  0  0  0  0  0  0  0
   14.0260   -1.3307   15.0015 C   0  0  0  0  0  0  0  0  0  0  0  0
   12.7601   -1.8550   14.3404 C   0  0  0  0  0  0  0  0  0  0  0  0
   12.1374   -2.7359   15.4036 C   0  0  0  0  0  0  0  0  0  0  0  0
   13.2909   -3.1560   16.3031 C   0  0  0  0  0  0  0  0  0  0  0  0
   14.4904   -2.4425   15.8432 N   0  0  0  0  0  0  0  0  0  0  0  0
   15.3312    3.3293   15.4633 C   0  0  0  0  0  0  0  0  0  0  0  0
   14.8911    2.8620   16.8727 C   0  0  0  0  0  0  0  0  0  0  0  0
   15.3903    1.5256   17.0934 N   0  0  0  0  0  0  0  0  0  0  0  0
   14.2934    3.6029   17.6015 O   0  0  0  0  0  0  0  0  0  0  0  0
   16.2768    3.3474   12.9467 H   0  0  0  0  0  0  0  0  0  0  0  0
   17.0393    1.7389   13.0115 H   0  0  0  0  0  0  0  0  0  0  0  0
   17.5729    2.9871   14.1073 H   0  0  0  0  0  0  0  0  0  0  0  0
   14.0966    2.4048   13.2413 H   0  0  0  0  0  0  0  0  0  0  0  0
   13.6817    1.4946   14.6787 H   0  0  0  0  0  0  0  0  0  0  0  0
   15.3929    0.4701   12.3583 H   0  0  0  0  0  0  0  0  0  0  0  0
   13.7200    0.0930   12.6500 H   0  0  0  0  0  0  0  0  0  0  0  0
   15.3418   -1.7009   13.3299 H   0  0  0  0  0  0  0  0  0  0  0  0
   16.0250   -0.6341   14.5424 H   0  0  0  0  0  0  0  0  0  0  0  0
   13.7857   -0.4960   15.6602 H   0  0  0  0  0  0  0  0  0  0  0  0
   12.9883   -2.4446   13.4459 H   0  0  0  0  0  0  0  0  0  0  0  0
   12.0809   -1.0526   14.0375 H   0  0  0  0  0  0  0  0  0  0  0  0
   11.6088   -3.5832   14.9622 H   0  0  0  0  0  0  0  0  0  0  0  0
   11.4003   -2.1674   15.9739 H   0  0  0  0  0  0  0  0  0  0  0  0
   13.4523   -4.2375   16.2766 H   0  0  0  0  0  0  0  0  0  0  0  0
   13.0850   -2.8993   17.3444 H   0  0  0  0  0  0  0  0  0  0  0  0
   15.0635   -3.0776   15.2867 H   0  0  0  0  0  0  0  0  0  0  0  0
   14.5394    3.9306   15.0029 H   0  0  0  0  0  0  0  0  0  0  0  0
   16.2069    3.9683   15.6327 H   0  0  0  0  0  0  0  0  0  0  0  0
   15.7580    1.1461   16.1900 H   0  0  0  0  0  0  0  0  0  0  0  0
   15.9653    1.2365   16.2682 H   0  0  0  0  0  0  0  0  0  0  0  0
  1  2  1  0
  2  3  1  0
  3  4  1  0
  4  5  1  0
  5  6  1  0
  6  7  1  0
  7  8  1  0
  8  9  1  0
  9 10  1  0
  2 11  1  0
 11 12  1  0
 12 13  1  0
 12 14  2  0
 10  6  1  0
  1 15  1  0
  1 16  1  0
  1 17  1  0
  3 18  1  0
  3 19  1  0
  4 20  1  0
  4 21  1  0
  5 22  1  0
  5 23  1  0
  6 24  1  0
  7 25  1  0
  7 26  1  0
  8 27  1  0
  8 28  1  0
  9 29  1  0
  9 30  1  0
 10 31  1  0
 11 32  1  0
 11 33  1  0
 13 34  1  0
 13 35  1  0
M  END
>  <Energy>  (644) 
187.59500094502613

>  <compound_id>  (644) 
54741

>  <target_id>  (644) 
1

>  <reference_id>  (644) 
76

>  <inspiration_ids>  (644) 
[124, 76]

>  <energy_score>  (644) 
107.9365263322544

>  <distance_score>  (644) 
2.0428006618618264

>  <path>  (644) 
/opt/xchem-fragalysis-2/maxwin/BulkDock/SCRATCH/511024/C54741-P76/C54741-P76.minimised.mol

>  <scratch_subdir>  (644) 
/opt/xchem-fragalysis-2/maxwin/BulkDock/SCRATCH/511024/C54741-P76

>  <fragmenstein_runtime>  (644) 
2.4780733585357666

>  <fragmenstein_outcome>  (644) 
too moved

>  <fragmenstein_mode>  (644) 
expansion

>  <fragmenstein_error>  (644) 


$$$$
C54742-P124
     RDKit          3D

 32 32  0  0  0  0  0  0  0  0999 V2000
   15.7314    1.3335   16.8622 C   0  0  0  0  0  0  0  0  0  0  0  0
   15.6713    0.1168   17.7782 C   0  0  0  0  0  0  0  0  0  0  0  0
   16.1329    0.4912   19.0743 O   0  0  0  0  0  0  0  0  0  0  0  0
   16.5146   -1.0508   17.2513 C   0  0  0  0  0  0  0  0  0  0  0  0
   16.2216   -1.3946   15.8657 N   0  0  0  0  0  0  0  0  0  0  0  0
   17.2450   -2.2359   15.2685 C   0  0  0  0  0  0  0  0  0  0  0  0
   14.8300   -1.6135   15.4746 C   0  0  0  0  0  0  0  0  0  0  0  0
   14.0549   -2.9237   15.6805 C   0  0  0  0  0  0  0  0  0  0  0  0
   13.0373   -3.1081   16.7893 C   0  0  0  0  0  0  0  0  0  0  0  0
   13.8614   -3.4486   18.0149 C   0  0  0  0  0  0  0  0  0  0  0  0
   15.1108   -3.9767   17.4891 N   0  0  0  0  0  0  0  0  0  0  0  0
   14.9208   -4.1016   16.0513 C   0  0  0  0  0  0  0  0  0  0  0  0
   15.1686    2.1652   17.3011 H   0  0  0  0  0  0  0  0  0  0  0  0
   15.3250    1.1499   15.8651 H   0  0  0  0  0  0  0  0  0  0  0  0
   16.7639    1.6852   16.7561 H   0  0  0  0  0  0  0  0  0  0  0  0
   14.6395   -0.2060   17.9092 H   0  0  0  0  0  0  0  0  0  0  0  0
   15.6429    1.2834   19.3498 H   0  0  0  0  0  0  0  0  0  0  0  0
   16.4246   -1.9026   17.9294 H   0  0  0  0  0  0  0  0  0  0  0  0
   17.5691   -0.7497   17.3316 H   0  0  0  0  0  0  0  0  0  0  0  0
   17.5132   -3.0933   15.8929 H   0  0  0  0  0  0  0  0  0  0  0  0
   18.1612   -1.6496   15.1309 H   0  0  0  0  0  0  0  0  0  0  0  0
   16.9569   -2.5858   14.2712 H   0  0  0  0  0  0  0  0  0  0  0  0
   14.8370   -1.4552   14.3851 H   0  0  0  0  0  0  0  0  0  0  0  0
   14.1946   -0.7921   15.8151 H   0  0  0  0  0  0  0  0  0  0  0  0
   13.4574   -3.0295   14.7750 H   0  0  0  0  0  0  0  0  0  0  0  0
   12.3223   -2.3101   16.8744 H   0  0  0  0  0  0  0  0  0  0  0  0
   12.4124   -3.9844   16.5516 H   0  0  0  0  0  0  0  0  0  0  0  0
   13.3482   -4.1666   18.6612 H   0  0  0  0  0  0  0  0  0  0  0  0
   14.1140   -2.5627   18.6006 H   0  0  0  0  0  0  0  0  0  0  0  0
   15.4000   -4.8342   17.9483 H   0  0  0  0  0  0  0  0  0  0  0  0
   14.3365   -4.9990   15.8749 H   0  0  0  0  0  0  0  0  0  0  0  0
   15.8422   -4.2332   15.4911 H   0  0  0  0  0  0  0  0  0  0  0  0
  1  2  1  0
  2  3  1  0
  2  4  1  0
  4  5  1  0
  5  6  1  0
  5  7  1  0
  7  8  1  0
  8  9  1  0
  9 10  1  0
 10 11  1  0
 11 12  1  0
 12  8  1  0
  1 13  1  0
  1 14  1  0
  1 15  1  0
  2 16  1  0
  3 17  1  0
  4 18  1  0
  4 19  1  0
  6 20  1  0
  6 21  1  0
  6 22  1  0
  7 23  1  0
  7 24  1  0
  8 25  1  0
  9 26  1  0
  9 27  1  0
 10 28  1  0
 10 29  1  0
 11 30  1  0
 12 31  1  0
 12 32  1  0
M  END
>  <Energy>  (645) 
65.167527377697155

>  <compound_id>  (645) 
54742

>  <target_id>  (645) 
1

>  <reference_id>  (645) 
124

>  <inspiration_ids>  (645) 
[124, 76]

>  <energy_score>  (645) 
-6.959832943097091

>  <distance_score>  (645) 
1.6569386529811918

>  <path>  (645) 
/opt/xchem-fragalysis-2/maxwin/BulkDock/SCRATCH/511024/C54742-P124/C54742-P124.minimised.mol

>  <scratch_subdir>  (645) 
/opt/xchem-fragalysis-2/maxwin/BulkDock/SCRATCH/511024/C54742-P124

>  <fragmenstein_runtime>  (645) 
11.642195463180542

>  <fragmenstein_outcome>  (645) 
too moved

>  <fragmenstein_mode>  (645) 
expansion

>  <fragmenstein_error>  (645) 


$$$$
C54742-P76
     RDKit          3D

 32 32  0  0  0  0  0  0  0  0999 V2000
   16.4818    1.2068   16.8030 C   0  0  0  0  0  0  0  0  0  0  0  0
   15.9315    0.0674   17.6463 C   0  0  0  0  0  0  0  0  0  0  0  0
   16.0021    0.4213   19.0258 O   0  0  0  0  0  0  0  0  0  0  0  0
   16.6888   -1.2608   17.4233 C   0  0  0  0  0  0  0  0  0  0  0  0
   16.7179   -1.7290   16.0335 N   0  0  0  0  0  0  0  0  0  0  0  0
   17.3828   -3.0198   15.8935 C   0  0  0  0  0  0  0  0  0  0  0  0
   15.4572   -1.6301   15.3038 C   0  0  0  0  0  0  0  0  0  0  0  0
   14.3834   -2.6510   15.6245 C   0  0  0  0  0  0  0  0  0  0  0  0
   13.0559   -2.2964   14.9603 C   0  0  0  0  0  0  0  0  0  0  0  0
   12.0153   -3.0346   15.7702 C   0  0  0  0  0  0  0  0  0  0  0  0
   12.7145   -3.6338   16.9079 N   0  0  0  0  0  0  0  0  0  0  0  0
   13.9915   -2.9342   17.0487 C   0  0  0  0  0  0  0  0  0  0  0  0
   15.9196    2.1272   16.9974 H   0  0  0  0  0  0  0  0  0  0  0  0
   16.4468    1.0141   15.7286 H   0  0  0  0  0  0  0  0  0  0  0  0
   17.5211    1.4195   17.0785 H   0  0  0  0  0  0  0  0  0  0  0  0
   14.8700   -0.0537   17.4270 H   0  0  0  0  0  0  0  0  0  0  0  0
   15.6247    1.3115   19.1265 H   0  0  0  0  0  0  0  0  0  0  0  0
   16.2757   -2.0189   18.0982 H   0  0  0  0  0  0  0  0  0  0  0  0
   17.7229   -1.1189   17.7667 H   0  0  0  0  0  0  0  0  0  0  0  0
   16.8670   -3.8203   16.4335 H   0  0  0  0  0  0  0  0  0  0  0  0
   18.4078   -2.9625   16.2768 H   0  0  0  0  0  0  0  0  0  0  0  0
   17.4606   -3.3067   14.8390 H   0  0  0  0  0  0  0  0  0  0  0  0
   15.6952   -1.7283   14.2345 H   0  0  0  0  0  0  0  0  0  0  0  0
   15.0392   -0.6218   15.3645 H   0  0  0  0  0  0  0  0  0  0  0  0
   14.7912   -3.5986   15.2874 H   0  0  0  0  0  0  0  0  0  0  0  0
   12.8684   -1.2185   15.0264 H   0  0  0  0  0  0  0  0  0  0  0  0
   13.0239   -2.5495   13.8971 H   0  0  0  0  0  0  0  0  0  0  0  0
   11.4929   -3.7885   15.1792 H   0  0  0  0  0  0  0  0  0  0  0  0
   11.2507   -2.3334   16.1066 H   0  0  0  0  0  0  0  0  0  0  0  0
   12.8914   -4.6160   16.6867 H   0  0  0  0  0  0  0  0  0  0  0  0
   14.7077   -3.5845   17.5607 H   0  0  0  0  0  0  0  0  0  0  0  0
   13.8810   -2.0378   17.6520 H   0  0  0  0  0  0  0  0  0  0  0  0
  1  2  1  0
  2  3  1  0
  2  4  1  0
  4  5  1  0
  5  6  1  0
  5  7  1  0
  7  8  1  0
  8  9  1  0
  9 10  1  0
 10 11  1  0
 11 12  1  0
 12  8  1  0
  1 13  1  0
  1 14  1  0
  1 15  1  0
  2 16  1  0
  3 17  1  0
  4 18  1  0
  4 19  1  0
  6 20  1  0
  6 21  1  0
  6 22  1  0
  7 23  1  0
  7 24  1  0
  8 25  1  0
  9 26  1  0
  9 27  1  0
 10 28  1  0
 10 29  1  0
 11 30  1  0
 12 31  1  0
 12 32  1  0
M  END
>  <Energy>  (646) 
45.276721183036663

>  <compound_id>  (646) 
54742

>  <target_id>  (646) 
1

>  <reference_id>  (646) 
76

>  <inspiration_ids>  (646) 
[124, 76]

>  <energy_score>  (646) 
-26.85063913775751

>  <distance_score>  (646) 
1.5493342371035352

>  <path>  (646) 
/opt/xchem-fragalysis-2/maxwin/BulkDock/SCRATCH/511024/C54742-P76/C54742-P76.minimised.mol

>  <scratch_subdir>  (646) 
/opt/xchem-fragalysis-2/maxwin/BulkDock/SCRATCH/511024/C54742-P76

>  <fragmenstein_runtime>  (646) 
12.57424521446228

>  <fragmenstein_outcome>  (646) 
too moved

>  <fragmenstein_mode>  (646) 
expansion

>  <fragmenstein_error>  (646) 


$$$$
C54744-P124
     RDKit          3D

 41 41  0  0  0  0  0  0  0  0999 V2000
   18.6278   -3.7220   14.2378 C   0  0  0  0  0  0  0  0  0  0  0  0
   17.9315   -3.1136   15.4816 C   0  0  0  0  0  0  0  0  0  0  0  0
   17.2167   -4.2651   16.2038 C   0  0  0  0  0  0  0  0  0  0  0  0
   19.0462   -2.5874   16.3947 C   0  0  0  0  0  0  0  0  0  0  0  0
   17.0035   -1.9612   14.9886 C   0  0  0  0  0  0  0  0  0  0  0  0
   15.8717   -2.4831   14.3136 O   0  0  0  0  0  0  0  0  0  0  0  0
   16.6692   -0.8262   15.9852 C   0  0  0  0  0  0  0  0  0  0  0  0
   16.3297   -1.2489   17.3431 N   0  0  0  0  0  0  0  0  0  0  0  0
   14.8991   -1.3145   17.5680 C   0  0  0  0  0  0  0  0  0  0  0  0
   14.1608   -2.5626   17.0318 C   0  0  0  0  0  0  0  0  0  0  0  0
   13.5215   -2.5464   15.7125 N   0  0  0  0  0  0  0  0  0  0  0  0
   12.1863   -3.1362   15.7552 C   0  0  0  0  0  0  0  0  0  0  0  0
   11.5363   -2.7463   14.4478 C   0  0  0  0  0  0  0  0  0  0  0  0
   12.4403   -1.7003   13.8310 C   0  0  0  0  0  0  0  0  0  0  0  0
   13.3863   -1.3091   14.9398 C   0  0  0  0  0  0  0  0  0  0  0  0
   17.9000   -4.0868   13.5126 H   0  0  0  0  0  0  0  0  0  0  0  0
   19.2770   -4.5623   14.5098 H   0  0  0  0  0  0  0  0  0  0  0  0
   19.2536   -2.9784   13.7305 H   0  0  0  0  0  0  0  0  0  0  0  0
   17.9023   -5.1032   16.3800 H   0  0  0  0  0  0  0  0  0  0  0  0
   16.8549   -3.9599   17.1882 H   0  0  0  0  0  0  0  0  0  0  0  0
   16.3791   -4.6588   15.6210 H   0  0  0  0  0  0  0  0  0  0  0  0
   18.6809   -2.2744   17.3763 H   0  0  0  0  0  0  0  0  0  0  0  0
   19.7993   -3.3629   16.5814 H   0  0  0  0  0  0  0  0  0  0  0  0
   19.5667   -1.7376   15.9385 H   0  0  0  0  0  0  0  0  0  0  0  0
   17.5570   -1.4402   14.1944 H   0  0  0  0  0  0  0  0  0  0  0  0
   15.2531   -2.8482   14.9735 H   0  0  0  0  0  0  0  0  0  0  0  0
   15.9330   -0.1298   15.5726 H   0  0  0  0  0  0  0  0  0  0  0  0
   17.5836   -0.2251   16.0835 H   0  0  0  0  0  0  0  0  0  0  0  0
   16.7186   -0.5621   17.9908 H   0  0  0  0  0  0  0  0  0  0  0  0
   14.4651   -0.3712   17.2398 H   0  0  0  0  0  0  0  0  0  0  0  0
   14.7640   -1.3266   18.6577 H   0  0  0  0  0  0  0  0  0  0  0  0
   13.4165   -2.8293   17.7857 H   0  0  0  0  0  0  0  0  0  0  0  0
   14.8250   -3.4279   17.0658 H   0  0  0  0  0  0  0  0  0  0  0  0
   12.2100   -4.2136   15.9258 H   0  0  0  0  0  0  0  0  0  0  0  0
   11.5994   -2.6923   16.5576 H   0  0  0  0  0  0  0  0  0  0  0  0
   11.4182   -3.5925   13.7682 H   0  0  0  0  0  0  0  0  0  0  0  0
   10.5429   -2.3361   14.6525 H   0  0  0  0  0  0  0  0  0  0  0  0
   11.8782   -0.8417   13.4545 H   0  0  0  0  0  0  0  0  0  0  0  0
   13.0120   -2.1319   13.0041 H   0  0  0  0  0  0  0  0  0  0  0  0
   14.3002   -0.9173   14.5011 H   0  0  0  0  0  0  0  0  0  0  0  0
   12.9604   -0.4810   15.4820 H   0  0  0  0  0  0  0  0  0  0  0  0
  1  2  1  0
  2  3  1  0
  2  4  1  0
  2  5  1  0
  5  6  1  0
  5  7  1  0
  7  8  1  0
  8  9  1  0
  9 10  1  0
 10 11  1  0
 11 12  1  0
 12 13  1  0
 13 14  1  0
 14 15  1  0
 15 11  1  0
  1 16  1  0
  1 17  1  0
  1 18  1  0
  3 19  1  0
  3 20  1  0
  3 21  1  0
  4 22  1  0
  4 23  1  0
  4 24  1  0
  5 25  1  0
  6 26  1  0
  7 27  1  0
  7 28  1  0
  8 29  1  0
  9 30  1  0
  9 31  1  0
 10 32  1  0
 10 33  1  0
 12 34  1  0
 12 35  1  0
 13 36  1  0
 13 37  1  0
 14 38  1  0
 14 39  1  0
 15 40  1  0
 15 41  1  0
M  END
>  <Energy>  (647) 
86.524644792527383

>  <compound_id>  (647) 
54744

>  <target_id>  (647) 
1

>  <reference_id>  (647) 
124

>  <inspiration_ids>  (647) 
[124, 76]

>  <energy_score>  (647) 
-10.478540046578956

>  <distance_score>  (647) 
2.055334269822259

>  <path>  (647) 
/opt/xchem-fragalysis-2/maxwin/BulkDock/SCRATCH/511024/C54744-P124/C54744-P124.minimised.mol

>  <scratch_subdir>  (647) 
/opt/xchem-fragalysis-2/maxwin/BulkDock/SCRATCH/511024/C54744-P124

>  <fragmenstein_runtime>  (647) 
15.883395671844482

>  <fragmenstein_outcome>  (647) 
too moved

>  <fragmenstein_mode>  (647) 
expansion

>  <fragmenstein_error>  (647) 


$$$$
C54744-P76
     RDKit          3D

 41 41  0  0  0  0  0  0  0  0999 V2000
   17.9648   -0.4368   14.1295 C   0  0  0  0  0  0  0  0  0  0  0  0
   17.4494   -1.3553   15.2718 C   0  0  0  0  0  0  0  0  0  0  0  0
   17.1812   -2.7163   14.6212 C   0  0  0  0  0  0  0  0  0  0  0  0
   18.5941   -1.5376   16.2797 C   0  0  0  0  0  0  0  0  0  0  0  0
   16.2256   -0.6283   15.9168 C   0  0  0  0  0  0  0  0  0  0  0  0
   15.0878   -0.6247   15.0769 O   0  0  0  0  0  0  0  0  0  0  0  0
   15.8254   -0.9626   17.3614 C   0  0  0  0  0  0  0  0  0  0  0  0
   15.8571   -2.3695   17.7395 N   0  0  0  0  0  0  0  0  0  0  0  0
   14.6042   -3.1133   17.5905 C   0  0  0  0  0  0  0  0  0  0  0  0
   14.1903   -3.5193   16.1608 C   0  0  0  0  0  0  0  0  0  0  0  0
   13.2243   -2.6080   15.5578 N   0  0  0  0  0  0  0  0  0  0  0  0
   11.8698   -2.9501   15.9491 C   0  0  0  0  0  0  0  0  0  0  0  0
   11.0139   -2.2411   14.9283 C   0  0  0  0  0  0  0  0  0  0  0  0
   11.9940   -1.4343   14.1012 C   0  0  0  0  0  0  0  0  0  0  0  0
   13.1332   -2.3997   14.0978 C   0  0  0  0  0  0  0  0  0  0  0  0
   18.8472   -0.8630   13.6378 H   0  0  0  0  0  0  0  0  0  0  0  0
   18.2539    0.5493   14.5110 H   0  0  0  0  0  0  0  0  0  0  0  0
   17.1967   -0.2895   13.3618 H   0  0  0  0  0  0  0  0  0  0  0  0
   16.3120   -2.6869   13.9591 H   0  0  0  0  0  0  0  0  0  0  0  0
   18.0330   -3.0332   14.0059 H   0  0  0  0  0  0  0  0  0  0  0  0
   17.0579   -3.5022   15.3702 H   0  0  0  0  0  0  0  0  0  0  0  0
   18.3650   -2.2801   17.0490 H   0  0  0  0  0  0  0  0  0  0  0  0
   19.5094   -1.8767   15.7794 H   0  0  0  0  0  0  0  0  0  0  0  0
   18.8318   -0.5926   16.7812 H   0  0  0  0  0  0  0  0  0  0  0  0
   16.5035    0.4339   15.9740 H   0  0  0  0  0  0  0  0  0  0  0  0
   14.4259   -1.2060   15.5018 H   0  0  0  0  0  0  0  0  0  0  0  0
   14.8615   -0.5115   17.6191 H   0  0  0  0  0  0  0  0  0  0  0  0
   16.5576   -0.4636   18.0105 H   0  0  0  0  0  0  0  0  0  0  0  0
   16.1257   -2.4235   18.7236 H   0  0  0  0  0  0  0  0  0  0  0  0
   13.7999   -2.6002   18.1115 H   0  0  0  0  0  0  0  0  0  0  0  0
   14.7481   -4.0508   18.1437 H   0  0  0  0  0  0  0  0  0  0  0  0
   13.7864   -4.5367   16.2109 H   0  0  0  0  0  0  0  0  0  0  0  0
   15.0785   -3.5919   15.5507 H   0  0  0  0  0  0  0  0  0  0  0  0
   11.6519   -4.0223   15.9560 H   0  0  0  0  0  0  0  0  0  0  0  0
   11.7337   -2.5627   16.9389 H   0  0  0  0  0  0  0  0  0  0  0  0
   10.5702   -3.0172   14.3033 H   0  0  0  0  0  0  0  0  0  0  0  0
   10.1894   -1.6683   15.3360 H   0  0  0  0  0  0  0  0  0  0  0  0
   12.3199   -0.5063   14.5619 H   0  0  0  0  0  0  0  0  0  0  0  0
   11.6276   -1.1979   13.1144 H   0  0  0  0  0  0  0  0  0  0  0  0
   12.7553   -3.2381   13.5087 H   0  0  0  0  0  0  0  0  0  0  0  0
   14.0255   -2.0084   13.6085 H   0  0  0  0  0  0  0  0  0  0  0  0
  1  2  1  0
  2  3  1  0
  2  4  1  0
  2  5  1  0
  5  6  1  0
  5  7  1  0
  7  8  1  0
  8  9  1  0
  9 10  1  0
 10 11  1  0
 11 12  1  0
 12 13  1  0
 13 14  1  0
 14 15  1  0
 15 11  1  0
  1 16  1  0
  1 17  1  0
  1 18  1  0
  3 19  1  0
  3 20  1  0
  3 21  1  0
  4 22  1  0
  4 23  1  0
  4 24  1  0
  5 25  1  0
  6 26  1  0
  7 27  1  0
  7 28  1  0
  8 29  1  0
  9 30  1  0
  9 31  1  0
 10 32  1  0
 10 33  1  0
 12 34  1  0
 12 35  1  0
 13 36  1  0
 13 37  1  0
 14 38  1  0
 14 39  1  0
 15 40  1  0
 15 41  1  0
M  END
>  <Energy>  (648) 
90.934955454484552

>  <compound_id>  (648) 
54744

>  <target_id>  (648) 
1

>  <reference_id>  (648) 
76

>  <inspiration_ids>  (648) 
[124, 76]

>  <energy_score>  (648) 
-6.068229384623379

>  <distance_score>  (648) 
2.284793097937371

>  <path>  (648) 
/opt/xchem-fragalysis-2/maxwin/BulkDock/SCRATCH/511024/C54744-P76/C54744-P76.minimised.mol

>  <scratch_subdir>  (648) 
/opt/xchem-fragalysis-2/maxwin/BulkDock/SCRATCH/511024/C54744-P76

>  <fragmenstein_runtime>  (648) 
16.34242558479309

>  <fragmenstein_outcome>  (648) 
too moved

>  <fragmenstein_mode>  (648) 
expansion

>  <fragmenstein_error>  (648) 


$$$$
C54745-P124
     RDKit          3D

 35 35  0  0  0  0  0  0  0  0999 V2000
   16.0426    1.7438   18.4142 C   0  0  0  0  0  0  0  0  0  0  0  0
   16.3668    1.8520   16.9295 C   0  0  0  0  0  0  0  0  0  0  0  0
   16.8514    0.5477   16.2451 C   0  0  0  0  0  0  0  0  0  0  0  0
   18.1588    0.0490   16.8743 C   0  0  0  0  0  0  0  0  0  0  0  0
   15.7177   -0.4358   16.3438 N   0  0  0  0  0  0  0  0  0  0  0  0
   16.0633   -1.7830   15.8594 C   0  0  0  0  0  0  0  0  0  0  0  0
   14.8494   -2.7107   15.8513 C   0  0  0  0  0  0  0  0  0  0  0  0
   13.6059   -2.1739   15.1383 C   0  0  0  0  0  0  0  0  0  0  0  0
   12.4534   -2.9554   15.7605 C   0  0  0  0  0  0  0  0  0  0  0  0
   13.0380   -3.7340   16.8511 N   0  0  0  0  0  0  0  0  0  0  0  0
   14.3031   -3.1093   17.2117 C   0  0  0  0  0  0  0  0  0  0  0  0
   17.0781    0.9249   14.7281 C   0  0  0  0  0  0  0  0  0  0  0  0
   15.8094    0.8162   14.0409 N   0  0  0  0  0  0  0  0  0  0  0  0
   18.1472    1.3026   14.3387 O   0  0  0  0  0  0  0  0  0  0  0  0
   16.8979    1.3809   18.9907 H   0  0  0  0  0  0  0  0  0  0  0  0
   15.7813    2.7332   18.8051 H   0  0  0  0  0  0  0  0  0  0  0  0
   15.1879    1.0890   18.6045 H   0  0  0  0  0  0  0  0  0  0  0  0
   17.1361    2.6264   16.8044 H   0  0  0  0  0  0  0  0  0  0  0  0
   15.4774    2.2444   16.4175 H   0  0  0  0  0  0  0  0  0  0  0  0
   17.9971   -0.3633   17.8760 H   0  0  0  0  0  0  0  0  0  0  0  0
   18.8874    0.8631   16.9639 H   0  0  0  0  0  0  0  0  0  0  0  0
   18.6295   -0.7286   16.2623 H   0  0  0  0  0  0  0  0  0  0  0  0
   15.5039   -0.5389   17.3387 H   0  0  0  0  0  0  0  0  0  0  0  0
   16.4588   -1.7325   14.8387 H   0  0  0  0  0  0  0  0  0  0  0  0
   16.8379   -2.2318   16.4915 H   0  0  0  0  0  0  0  0  0  0  0  0
   15.1853   -3.6303   15.3584 H   0  0  0  0  0  0  0  0  0  0  0  0
   13.6651   -2.2980   14.0533 H   0  0  0  0  0  0  0  0  0  0  0  0
   13.4531   -1.1068   15.3223 H   0  0  0  0  0  0  0  0  0  0  0  0
   11.6813   -2.2766   16.1284 H   0  0  0  0  0  0  0  0  0  0  0  0
   11.9696   -3.6067   15.0311 H   0  0  0  0  0  0  0  0  0  0  0  0
   12.3997   -3.8504   17.6385 H   0  0  0  0  0  0  0  0  0  0  0  0
   14.9617   -3.8148   17.7265 H   0  0  0  0  0  0  0  0  0  0  0  0
   14.1447   -2.2466   17.8641 H   0  0  0  0  0  0  0  0  0  0  0  0
   15.1247    0.3353   14.6656 H   0  0  0  0  0  0  0  0  0  0  0  0
   15.0701    0.5582   14.7312 H   0  0  0  0  0  0  0  0  0  0  0  0
  1  2  1  0
  2  3  1  0
  3  4  1  0
  3  5  1  0
  5  6  1  0
  6  7  1  0
  7  8  1  0
  8  9  1  0
  9 10  1  0
 10 11  1  0
  3 12  1  0
 12 13  1  0
 12 14  2  0
 11  7  1  0
  1 15  1  0
  1 16  1  0
  1 17  1  0
  2 18  1  0
  2 19  1  0
  4 20  1  0
  4 21  1  0
  4 22  1  0
  5 23  1  0
  6 24  1  0
  6 25  1  0
  7 26  1  0
  8 27  1  0
  8 28  1  0
  9 29  1  0
  9 30  1  0
 10 31  1  0
 11 32  1  0
 11 33  1  0
 13 34  1  0
 13 35  1  0
M  END
>  <Energy>  (649) 
197.18495385460588

>  <compound_id>  (649) 
54745

>  <target_id>  (649) 
1

>  <reference_id>  (649) 
124

>  <inspiration_ids>  (649) 
[124, 76]

>  <energy_score>  (649) 
105.14172080735287

>  <distance_score>  (649) 
3.219699855245872

>  <path>  (649) 
/opt/xchem-fragalysis-2/maxwin/BulkDock/SCRATCH/511024/C54745-P124/C54745-P124.minimised.mol

>  <scratch_subdir>  (649) 
/opt/xchem-fragalysis-2/maxwin/BulkDock/SCRATCH/511024/C54745-P124

>  <fragmenstein_runtime>  (649) 
12.156353950500488

>  <fragmenstein_outcome>  (649) 
too moved

>  <fragmenstein_mode>  (649) 
expansion

>  <fragmenstein_error>  (649) 


$$$$
C54745-P76
     RDKit          3D

 35 35  0  0  0  0  0  0  0  0999 V2000
   15.2050   -0.5292   13.6354 C   0  0  0  0  0  0  0  0  0  0  0  0
   16.3043   -1.5855   13.5109 C   0  0  0  0  0  0  0  0  0  0  0  0
   17.3142   -1.6400   14.6903 C   0  0  0  0  0  0  0  0  0  0  0  0
   17.9722   -0.2341   14.8108 C   0  0  0  0  0  0  0  0  0  0  0  0
   16.6605   -1.8396   16.0061 N   0  0  0  0  0  0  0  0  0  0  0  0
   15.8932   -3.0534   16.2268 C   0  0  0  0  0  0  0  0  0  0  0  0
   14.7366   -2.7574   17.1939 C   0  0  0  0  0  0  0  0  0  0  0  0
   15.2072   -2.3947   18.6048 C   0  0  0  0  0  0  0  0  0  0  0  0
   14.7623   -3.5493   19.4916 C   0  0  0  0  0  0  0  0  0  0  0  0
   14.4460   -4.6486   18.5747 N   0  0  0  0  0  0  0  0  0  0  0  0
   13.8573   -3.9799   17.4102 C   0  0  0  0  0  0  0  0  0  0  0  0
   18.5251   -2.7021   14.5223 C   0  0  0  0  0  0  0  0  0  0  0  0
   18.0850   -4.0073   14.0601 N   0  0  0  0  0  0  0  0  0  0  0  0
   19.6150   -2.3174   14.8538 O   0  0  0  0  0  0  0  0  0  0  0  0
   14.6450   -0.6312   14.5691 H   0  0  0  0  0  0  0  0  0  0  0  0
   14.4934   -0.6423   12.8100 H   0  0  0  0  0  0  0  0  0  0  0  0
   15.6064    0.4858   13.5727 H   0  0  0  0  0  0  0  0  0  0  0  0
   16.8567   -1.4092   12.5787 H   0  0  0  0  0  0  0  0  0  0  0  0
   15.7903   -2.5377   13.3623 H   0  0  0  0  0  0  0  0  0  0  0  0
   18.4729    0.0402   13.8748 H   0  0  0  0  0  0  0  0  0  0  0  0
   18.7286   -0.1969   15.6050 H   0  0  0  0  0  0  0  0  0  0  0  0
   17.2442    0.5494   15.0481 H   0  0  0  0  0  0  0  0  0  0  0  0
   17.3713   -1.7409   16.7368 H   0  0  0  0  0  0  0  0  0  0  0  0
   15.4495   -3.4140   15.3004 H   0  0  0  0  0  0  0  0  0  0  0  0
   16.5434   -3.8489   16.6081 H   0  0  0  0  0  0  0  0  0  0  0  0
   14.1355   -1.9461   16.7708 H   0  0  0  0  0  0  0  0  0  0  0  0
   14.7497   -1.4577   18.9409 H   0  0  0  0  0  0  0  0  0  0  0  0
   16.2933   -2.2696   18.6643 H   0  0  0  0  0  0  0  0  0  0  0  0
   15.5409   -3.8398   20.2040 H   0  0  0  0  0  0  0  0  0  0  0  0
   13.8725   -3.2829   20.0708 H   0  0  0  0  0  0  0  0  0  0  0  0
   15.3309   -5.0826   18.3022 H   0  0  0  0  0  0  0  0  0  0  0  0
   12.8290   -3.6833   17.6396 H   0  0  0  0  0  0  0  0  0  0  0  0
   13.8176   -4.6377   16.5397 H   0  0  0  0  0  0  0  0  0  0  0  0
   17.0509   -4.0055   13.9762 H   0  0  0  0  0  0  0  0  0  0  0  0
   17.0962   -3.9415   13.7516 H   0  0  0  0  0  0  0  0  0  0  0  0
  1  2  1  0
  2  3  1  0
  3  4  1  0
  3  5  1  0
  5  6  1  0
  6  7  1  0
  7  8  1  0
  8  9  1  0
  9 10  1  0
 10 11  1  0
  3 12  1  0
 12 13  1  0
 12 14  2  0
 11  7  1  0
  1 15  1  0
  1 16  1  0
  1 17  1  0
  2 18  1  0
  2 19  1  0
  4 20  1  0
  4 21  1  0
  4 22  1  0
  5 23  1  0
  6 24  1  0
  6 25  1  0
  7 26  1  0
  8 27  1  0
  8 28  1  0
  9 29  1  0
  9 30  1  0
 10 31  1  0
 11 32  1  0
 11 33  1  0
 13 34  1  0
 13 35  1  0
M  END
>  <Energy>  (650) 
218.71668278232926

>  <compound_id>  (650) 
54745

>  <target_id>  (650) 
1

>  <reference_id>  (650) 
76

>  <inspiration_ids>  (650) 
[124, 76]

>  <energy_score>  (650) 
126.67344973507664

>  <distance_score>  (650) 
3.41188911342967

>  <path>  (650) 
/opt/xchem-fragalysis-2/maxwin/BulkDock/SCRATCH/511024/C54745-P76/C54745-P76.minimised.mol

>  <scratch_subdir>  (650) 
/opt/xchem-fragalysis-2/maxwin/BulkDock/SCRATCH/511024/C54745-P76

>  <fragmenstein_runtime>  (650) 
20.572612047195435

>  <fragmenstein_outcome>  (650) 
too moved

>  <fragmenstein_mode>  (650) 
expansion

>  <fragmenstein_error>  (650) 


$$$$
C54746-P124
     RDKit          3D

 37 37  0  0  0  0  0  0  0  0999 V2000
   14.9629   -0.1758   20.6833 C   0  0  0  0  0  0  0  0  0  0  0  0
   15.6978   -0.0623   19.7409 C   0  0  0  0  0  0  0  0  0  0  0  0
   16.6535    0.0297   18.6267 C   0  0  0  0  0  0  0  0  0  0  0  0
   16.3572    1.1886   17.6796 C   0  0  0  0  0  0  0  0  0  0  0  0
   15.0889    0.9562   16.8496 C   0  0  0  0  0  0  0  0  0  0  0  0
   15.1674    0.5864   15.4276 N   0  0  0  0  0  0  0  0  0  0  0  0
   15.9882    1.5913   14.7107 C   0  0  0  0  0  0  0  0  0  0  0  0
   15.6471    1.7041   13.2223 C   0  0  0  0  0  0  0  0  0  0  0  0
   14.3184    2.1800   13.0537 O   0  0  0  0  0  0  0  0  0  0  0  0
   15.6635   -0.7882   15.1957 C   0  0  0  0  0  0  0  0  0  0  0  0
   14.6792   -1.9868   15.3354 C   0  0  0  0  0  0  0  0  0  0  0  0
   13.2881   -1.7696   14.7457 C   0  0  0  0  0  0  0  0  0  0  0  0
   12.3851   -2.7433   15.4940 C   0  0  0  0  0  0  0  0  0  0  0  0
   13.2745   -3.4061   16.5339 C   0  0  0  0  0  0  0  0  0  0  0  0
   14.4472   -2.5335   16.6848 N   0  0  0  0  0  0  0  0  0  0  0  0
   14.3209   -0.3021   21.5264 H   0  0  0  0  0  0  0  0  0  0  0  0
   17.6566    0.1754   19.0463 H   0  0  0  0  0  0  0  0  0  0  0  0
   16.6839   -0.9196   18.0828 H   0  0  0  0  0  0  0  0  0  0  0  0
   16.2379    2.1122   18.2613 H   0  0  0  0  0  0  0  0  0  0  0  0
   17.2296    1.3465   17.0379 H   0  0  0  0  0  0  0  0  0  0  0  0
   14.5164    1.8918   16.8885 H   0  0  0  0  0  0  0  0  0  0  0  0
   14.4853    0.2156   17.3599 H   0  0  0  0  0  0  0  0  0  0  0  0
   17.0576    1.3738   14.8197 H   0  0  0  0  0  0  0  0  0  0  0  0
   15.8089    2.5849   15.1429 H   0  0  0  0  0  0  0  0  0  0  0  0
   15.7445    0.7517   12.6941 H   0  0  0  0  0  0  0  0  0  0  0  0
   16.3192    2.4210   12.7402 H   0  0  0  0  0  0  0  0  0  0  0  0
   13.7771    1.6872   13.7039 H   0  0  0  0  0  0  0  0  0  0  0  0
   16.0057   -0.8497   14.1544 H   0  0  0  0  0  0  0  0  0  0  0  0
   16.5662   -0.9816   15.7880 H   0  0  0  0  0  0  0  0  0  0  0  0
   15.1606   -2.8004   14.7773 H   0  0  0  0  0  0  0  0  0  0  0  0
   12.9288   -0.7481   14.8937 H   0  0  0  0  0  0  0  0  0  0  0  0
   13.2772   -1.9656   13.6681 H   0  0  0  0  0  0  0  0  0  0  0  0
   11.5594   -2.2051   15.9665 H   0  0  0  0  0  0  0  0  0  0  0  0
   11.9335   -3.4711   14.8159 H   0  0  0  0  0  0  0  0  0  0  0  0
   13.6045   -4.3894   16.1908 H   0  0  0  0  0  0  0  0  0  0  0  0
   12.7617   -3.5568   17.4862 H   0  0  0  0  0  0  0  0  0  0  0  0
   14.2245   -1.7762   17.3221 H   0  0  0  0  0  0  0  0  0  0  0  0
  1  2  3  0
  2  3  1  0
  3  4  1  0
  4  5  1  0
  5  6  1  0
  6  7  1  0
  7  8  1  0
  8  9  1  0
  6 10  1  0
 10 11  1  0
 11 12  1  0
 12 13  1  0
 13 14  1  0
 14 15  1  0
 15 11  1  0
  1 16  1  0
  3 17  1  0
  3 18  1  0
  4 19  1  0
  4 20  1  0
  5 21  1  0
  5 22  1  0
  7 23  1  0
  7 24  1  0
  8 25  1  0
  8 26  1  0
  9 27  1  0
 10 28  1  0
 10 29  1  0
 11 30  1  0
 12 31  1  0
 12 32  1  0
 13 33  1  0
 13 34  1  0
 14 35  1  0
 14 36  1  0
 15 37  1  0
M  END
>  <Energy>  (651) 
59.908188725481381

>  <compound_id>  (651) 
54746

>  <target_id>  (651) 
1

>  <reference_id>  (651) 
124

>  <inspiration_ids>  (651) 
[124, 76]

>  <energy_score>  (651) 
-24.514818116643596

>  <distance_score>  (651) 
1.3393002066606

>  <path>  (651) 
/opt/xchem-fragalysis-2/maxwin/BulkDock/SCRATCH/511024/C54746-P124/C54746-P124.minimised.mol

>  <scratch_subdir>  (651) 
/opt/xchem-fragalysis-2/maxwin/BulkDock/SCRATCH/511024/C54746-P124

>  <fragmenstein_runtime>  (651) 
1.7683141231536865

>  <fragmenstein_outcome>  (651) 
too moved

>  <fragmenstein_mode>  (651) 
expansion

>  <fragmenstein_error>  (651) 


$$$$
C54746-P76
     RDKit          3D

 37 37  0  0  0  0  0  0  0  0999 V2000
   14.9137   -0.1342   20.6837 C   0  0  0  0  0  0  0  0  0  0  0  0
   15.6658   -0.0289   19.7539 C   0  0  0  0  0  0  0  0  0  0  0  0
   16.6371    0.0587   18.6528 C   0  0  0  0  0  0  0  0  0  0  0  0
   16.3520    1.2140   17.6973 C   0  0  0  0  0  0  0  0  0  0  0  0
   15.0859    0.9852   16.8634 C   0  0  0  0  0  0  0  0  0  0  0  0
   15.1704    0.6007   15.4456 N   0  0  0  0  0  0  0  0  0  0  0  0
   15.9854    1.6049   14.7210 C   0  0  0  0  0  0  0  0  0  0  0  0
   15.6452    1.7024   13.2313 C   0  0  0  0  0  0  0  0  0  0  0  0
   14.3139    2.1692   13.0573 O   0  0  0  0  0  0  0  0  0  0  0  0
   15.6789   -0.7718   15.2270 C   0  0  0  0  0  0  0  0  0  0  0  0
   14.7087   -1.9795   15.3832 C   0  0  0  0  0  0  0  0  0  0  0  0
   13.3194   -1.7878   14.7812 C   0  0  0  0  0  0  0  0  0  0  0  0
   12.4178   -2.7439   15.5535 C   0  0  0  0  0  0  0  0  0  0  0  0
   13.3100   -3.3884   16.6027 C   0  0  0  0  0  0  0  0  0  0  0  0
   14.4750   -2.5046   16.7406 N   0  0  0  0  0  0  0  0  0  0  0  0
   14.2565   -0.2498   21.5166 H   0  0  0  0  0  0  0  0  0  0  0  0
   17.6344    0.2070   19.0851 H   0  0  0  0  0  0  0  0  0  0  0  0
   16.6756   -0.8926   18.1132 H   0  0  0  0  0  0  0  0  0  0  0  0
   16.2352    2.1413   18.2738 H   0  0  0  0  0  0  0  0  0  0  0  0
   17.2279    1.3641   17.0584 H   0  0  0  0  0  0  0  0  0  0  0  0
   14.5173    1.9236   16.8927 H   0  0  0  0  0  0  0  0  0  0  0  0
   14.4746    0.2547   17.3776 H   0  0  0  0  0  0  0  0  0  0  0  0
   17.0561    1.3960   14.8337 H   0  0  0  0  0  0  0  0  0  0  0  0
   15.7991    2.6011   15.1441 H   0  0  0  0  0  0  0  0  0  0  0  0
   15.7488    0.7461   12.7115 H   0  0  0  0  0  0  0  0  0  0  0  0
   16.3135    2.4191   12.7436 H   0  0  0  0  0  0  0  0  0  0  0  0
   13.7731    1.6723   13.7053 H   0  0  0  0  0  0  0  0  0  0  0  0
   16.0181   -0.8411   14.1852 H   0  0  0  0  0  0  0  0  0  0  0  0
   16.5856   -0.9494   15.8182 H   0  0  0  0  0  0  0  0  0  0  0  0
   15.2032   -2.7972   14.8428 H   0  0  0  0  0  0  0  0  0  0  0  0
   12.9554   -0.7645   14.8967 H   0  0  0  0  0  0  0  0  0  0  0  0
   13.3144   -2.0143   13.7095 H   0  0  0  0  0  0  0  0  0  0  0  0
   11.5985   -2.1916   16.0191 H   0  0  0  0  0  0  0  0  0  0  0  0
   11.9560   -3.4816   14.8940 H   0  0  0  0  0  0  0  0  0  0  0  0
   13.6472   -4.3767   16.2788 H   0  0  0  0  0  0  0  0  0  0  0  0
   12.7980   -3.5258   17.5574 H   0  0  0  0  0  0  0  0  0  0  0  0
   14.2460   -1.7384   17.3646 H   0  0  0  0  0  0  0  0  0  0  0  0
  1  2  3  0
  2  3  1  0
  3  4  1  0
  4  5  1  0
  5  6  1  0
  6  7  1  0
  7  8  1  0
  8  9  1  0
  6 10  1  0
 10 11  1  0
 11 12  1  0
 12 13  1  0
 13 14  1  0
 14 15  1  0
 15 11  1  0
  1 16  1  0
  3 17  1  0
  3 18  1  0
  4 19  1  0
  4 20  1  0
  5 21  1  0
  5 22  1  0
  7 23  1  0
  7 24  1  0
  8 25  1  0
  8 26  1  0
  9 27  1  0
 10 28  1  0
 10 29  1  0
 11 30  1  0
 12 31  1  0
 12 32  1  0
 13 33  1  0
 13 34  1  0
 14 35  1  0
 14 36  1  0
 15 37  1  0
M  END
>  <Energy>  (652) 
59.77702834205715

>  <compound_id>  (652) 
54746

>  <target_id>  (652) 
1

>  <reference_id>  (652) 
76

>  <inspiration_ids>  (652) 
[124, 76]

>  <energy_score>  (652) 
-24.645978500067542

>  <distance_score>  (652) 
1.3431570574191651

>  <path>  (652) 
/opt/xchem-fragalysis-2/maxwin/BulkDock/SCRATCH/511024/C54746-P76/C54746-P76.minimised.mol

>  <scratch_subdir>  (652) 
/opt/xchem-fragalysis-2/maxwin/BulkDock/SCRATCH/511024/C54746-P76

>  <fragmenstein_runtime>  (652) 
1.7778735160827637

>  <fragmenstein_outcome>  (652) 
too moved

>  <fragmenstein_mode>  (652) 
expansion

>  <fragmenstein_error>  (652) 


$$$$
C54747-P124
     RDKit          3D

 38 38  0  0  0  0  0  0  0  0999 V2000
   16.7069    1.4263   13.3324 C   0  0  0  0  0  0  0  0  0  0  0  0
   15.6270    2.4107   13.7679 C   0  0  0  0  0  0  0  0  0  0  0  0
   14.5256    2.2639   12.8647 O   0  0  0  0  0  0  0  0  0  0  0  0
   15.1389    2.2192   15.2468 C   0  0  0  0  0  0  0  0  0  0  0  0
   14.0327    3.2406   15.5573 C   0  0  0  0  0  0  0  0  0  0  0  0
   16.2602    2.2288   16.2182 N   0  0  0  0  0  0  0  0  0  0  0  0
   16.9642    3.5131   16.2933 C   0  0  0  0  0  0  0  0  0  0  0  0
   15.9661    1.7591   17.5862 C   0  0  0  0  0  0  0  0  0  0  0  0
   15.4302    0.3209   17.7766 C   0  0  0  0  0  0  0  0  0  0  0  0
   16.2957   -0.7955   17.3801 N   0  0  0  0  0  0  0  0  0  0  0  0
   16.3718   -0.9623   15.9242 C   0  0  0  0  0  0  0  0  0  0  0  0
   16.5703   -2.4516   15.6749 C   0  0  0  0  0  0  0  0  0  0  0  0
   16.5308   -3.0881   17.0494 C   0  0  0  0  0  0  0  0  0  0  0  0
   15.7906   -2.0716   17.8930 C   0  0  0  0  0  0  0  0  0  0  0  0
   16.3266    0.4001   13.3426 H   0  0  0  0  0  0  0  0  0  0  0  0
   17.6006    1.4884   13.9586 H   0  0  0  0  0  0  0  0  0  0  0  0
   17.0076    1.6285   12.2981 H   0  0  0  0  0  0  0  0  0  0  0  0
   15.9985    3.4324   13.6308 H   0  0  0  0  0  0  0  0  0  0  0  0
   14.8585    2.4444   11.9692 H   0  0  0  0  0  0  0  0  0  0  0  0
   14.6450    1.2444   15.2740 H   0  0  0  0  0  0  0  0  0  0  0  0
   14.3822    4.2698   15.4252 H   0  0  0  0  0  0  0  0  0  0  0  0
   13.1740    3.0995   14.8923 H   0  0  0  0  0  0  0  0  0  0  0  0
   13.6616    3.1369   16.5809 H   0  0  0  0  0  0  0  0  0  0  0  0
   17.3156    3.8471   15.3132 H   0  0  0  0  0  0  0  0  0  0  0  0
   16.3433    4.3028   16.7295 H   0  0  0  0  0  0  0  0  0  0  0  0
   17.8668    3.4188   16.9088 H   0  0  0  0  0  0  0  0  0  0  0  0
   15.2607    2.4479   18.0683 H   0  0  0  0  0  0  0  0  0  0  0  0
   16.8905    1.8147   18.1778 H   0  0  0  0  0  0  0  0  0  0  0  0
   15.2048    0.2204   18.8468 H   0  0  0  0  0  0  0  0  0  0  0  0
   14.4862    0.2299   17.2488 H   0  0  0  0  0  0  0  0  0  0  0  0
   17.2079   -0.3884   15.5172 H   0  0  0  0  0  0  0  0  0  0  0  0
   15.4498   -0.6722   15.4134 H   0  0  0  0  0  0  0  0  0  0  0  0
   15.7598   -2.8435   15.0501 H   0  0  0  0  0  0  0  0  0  0  0  0
   17.5180   -2.6630   15.1692 H   0  0  0  0  0  0  0  0  0  0  0  0
   16.0380   -4.0645   17.0404 H   0  0  0  0  0  0  0  0  0  0  0  0
   17.5515   -3.2265   17.4267 H   0  0  0  0  0  0  0  0  0  0  0  0
   16.0052   -2.1986   18.9586 H   0  0  0  0  0  0  0  0  0  0  0  0
   14.7088   -2.1748   17.7365 H   0  0  0  0  0  0  0  0  0  0  0  0
  1  2  1  0
  2  3  1  0
  2  4  1  0
  4  5  1  0
  4  6  1  0
  6  7  1  0
  6  8  1  0
  8  9  1  0
  9 10  1  0
 10 11  1  0
 11 12  1  0
 12 13  1  0
 13 14  1  0
 14 10  1  0
  1 15  1  0
  1 16  1  0
  1 17  1  0
  2 18  1  0
  3 19  1  0
  4 20  1  0
  5 21  1  0
  5 22  1  0
  5 23  1  0
  7 24  1  0
  7 25  1  0
  7 26  1  0
  8 27  1  0
  8 28  1  0
  9 29  1  0
  9 30  1  0
 11 31  1  0
 11 32  1  0
 12 33  1  0
 12 34  1  0
 13 35  1  0
 13 36  1  0
 14 37  1  0
 14 38  1  0
M  END
>  <Energy>  (653) 
65.091891083867381

>  <compound_id>  (653) 
54747

>  <target_id>  (653) 
1

>  <reference_id>  (653) 
124

>  <inspiration_ids>  (653) 
[124, 76]

>  <energy_score>  (653) 
-40.38848124236873

>  <distance_score>  (653) 
1.3124145775410936

>  <path>  (653) 
/opt/xchem-fragalysis-2/maxwin/BulkDock/SCRATCH/511024/C54747-P124/C54747-P124.minimised.mol

>  <scratch_subdir>  (653) 
/opt/xchem-fragalysis-2/maxwin/BulkDock/SCRATCH/511024/C54747-P124

>  <fragmenstein_runtime>  (653) 
1.0570826530456543

>  <fragmenstein_outcome>  (653) 
too moved

>  <fragmenstein_mode>  (653) 
expansion

>  <fragmenstein_error>  (653) 


$$$$
C54747-P76
     RDKit          3D

 38 38  0  0  0  0  0  0  0  0999 V2000
   16.7018    1.4231   13.3286 C   0  0  0  0  0  0  0  0  0  0  0  0
   15.6285    2.4142   13.7652 C   0  0  0  0  0  0  0  0  0  0  0  0
   14.5238    2.2732   12.8652 O   0  0  0  0  0  0  0  0  0  0  0  0
   15.1438    2.2275   15.2459 C   0  0  0  0  0  0  0  0  0  0  0  0
   14.0399    3.2511   15.5570 C   0  0  0  0  0  0  0  0  0  0  0  0
   16.2676    2.2380   16.2145 N   0  0  0  0  0  0  0  0  0  0  0  0
   16.9755    3.5204   16.2830 C   0  0  0  0  0  0  0  0  0  0  0  0
   15.9771    1.7737   17.5854 C   0  0  0  0  0  0  0  0  0  0  0  0
   15.4275    0.3418   17.7821 C   0  0  0  0  0  0  0  0  0  0  0  0
   16.2806   -0.7852   17.3876 N   0  0  0  0  0  0  0  0  0  0  0  0
   16.3601   -0.9524   15.9323 C   0  0  0  0  0  0  0  0  0  0  0  0
   16.5728   -2.4402   15.6866 C   0  0  0  0  0  0  0  0  0  0  0  0
   16.4924   -3.0819   17.0574 C   0  0  0  0  0  0  0  0  0  0  0  0
   15.7561   -2.0563   17.8939 C   0  0  0  0  0  0  0  0  0  0  0  0
   16.3161    0.3989   13.3426 H   0  0  0  0  0  0  0  0  0  0  0  0
   17.5977    1.4822   13.9519 H   0  0  0  0  0  0  0  0  0  0  0  0
   17.0004    1.6213   12.2928 H   0  0  0  0  0  0  0  0  0  0  0  0
   16.0054    3.4335   13.6255 H   0  0  0  0  0  0  0  0  0  0  0  0
   14.8572    2.4410   11.9675 H   0  0  0  0  0  0  0  0  0  0  0  0
   14.6487    1.2535   15.2766 H   0  0  0  0  0  0  0  0  0  0  0  0
   14.3892    4.2793   15.4162 H   0  0  0  0  0  0  0  0  0  0  0  0
   13.1768    3.1060   14.8986 H   0  0  0  0  0  0  0  0  0  0  0  0
   13.6756    3.1544   16.5835 H   0  0  0  0  0  0  0  0  0  0  0  0
   17.3276    3.8484   15.3011 H   0  0  0  0  0  0  0  0  0  0  0  0
   16.3572    4.3143   16.7154 H   0  0  0  0  0  0  0  0  0  0  0  0
   17.8782    3.4266   16.8985 H   0  0  0  0  0  0  0  0  0  0  0  0
   15.2809    2.4704   18.0697 H   0  0  0  0  0  0  0  0  0  0  0  0
   16.9054    1.8219   18.1714 H   0  0  0  0  0  0  0  0  0  0  0  0
   15.2033    0.2466   18.8530 H   0  0  0  0  0  0  0  0  0  0  0  0
   14.4811    0.2626   17.2570 H   0  0  0  0  0  0  0  0  0  0  0  0
   17.1902   -0.3717   15.5230 H   0  0  0  0  0  0  0  0  0  0  0  0
   15.4341   -0.6724   15.4228 H   0  0  0  0  0  0  0  0  0  0  0  0
   15.7874   -2.8340   15.0322 H   0  0  0  0  0  0  0  0  0  0  0  0
   17.5388   -2.6452   15.2137 H   0  0  0  0  0  0  0  0  0  0  0  0
   15.9809   -4.0489   17.0334 H   0  0  0  0  0  0  0  0  0  0  0  0
   17.5026   -3.2426   17.4537 H   0  0  0  0  0  0  0  0  0  0  0  0
   15.9581   -2.1866   18.9617 H   0  0  0  0  0  0  0  0  0  0  0  0
   14.6749   -2.1467   17.7265 H   0  0  0  0  0  0  0  0  0  0  0  0
  1  2  1  0
  2  3  1  0
  2  4  1  0
  4  5  1  0
  4  6  1  0
  6  7  1  0
  6  8  1  0
  8  9  1  0
  9 10  1  0
 10 11  1  0
 11 12  1  0
 12 13  1  0
 13 14  1  0
 14 10  1  0
  1 15  1  0
  1 16  1  0
  1 17  1  0
  2 18  1  0
  3 19  1  0
  4 20  1  0
  5 21  1  0
  5 22  1  0
  5 23  1  0
  7 24  1  0
  7 25  1  0
  7 26  1  0
  8 27  1  0
  8 28  1  0
  9 29  1  0
  9 30  1  0
 11 31  1  0
 11 32  1  0
 12 33  1  0
 12 34  1  0
 13 35  1  0
 13 36  1  0
 14 37  1  0
 14 38  1  0
M  END
>  <Energy>  (654) 
65.004223248129861

>  <compound_id>  (654) 
54747

>  <target_id>  (654) 
1

>  <reference_id>  (654) 
76

>  <inspiration_ids>  (654) 
[124, 76]

>  <energy_score>  (654) 
-40.476149078106054

>  <distance_score>  (654) 
1.3100307249401113

>  <path>  (654) 
/opt/xchem-fragalysis-2/maxwin/BulkDock/SCRATCH/511024/C54747-P76/C54747-P76.minimised.mol

>  <scratch_subdir>  (654) 
/opt/xchem-fragalysis-2/maxwin/BulkDock/SCRATCH/511024/C54747-P76

>  <fragmenstein_runtime>  (654) 
0.8989791870117188

>  <fragmenstein_outcome>  (654) 
too moved

>  <fragmenstein_mode>  (654) 
expansion

>  <fragmenstein_error>  (654) 


$$$$
C48331-P124
     RDKit          3D

 21 22  0  0  0  0  0  0  0  0999 V2000
   11.7375   -3.0200   15.3717 C   0  0  0  0  0  0  0  0  0  0  0  0
   12.6154   -3.4522   16.3319 C   0  0  0  0  0  0  0  0  0  0  0  0
   13.8051   -2.7010   16.1551 C   0  0  0  0  0  0  0  0  0  0  0  0
   15.0662   -2.7950   16.9346 C   0  0  0  0  0  0  0  0  0  0  0  0
   16.2943   -3.0700   16.0675 C   0  0  0  0  0  0  0  0  0  0  0  0
   17.2537   -1.9407   16.3877 C   0  0  0  0  0  0  0  0  0  0  0  0
   16.7789   -1.4369   17.7335 C   0  0  0  0  0  0  0  0  0  0  0  0
   15.3197   -1.5102   17.6218 N   0  0  0  0  0  0  0  0  0  0  0  0
   13.5514   -1.8745   15.0818 C   0  0  0  0  0  0  0  0  0  0  0  0
   12.3007   -2.0550   14.6183 O   0  0  0  0  0  0  0  0  0  0  0  0
   10.7316   -3.2993   15.0928 H   0  0  0  0  0  0  0  0  0  0  0  0
   12.4255   -4.2268   17.0617 H   0  0  0  0  0  0  0  0  0  0  0  0
   14.9723   -3.5826   17.6932 H   0  0  0  0  0  0  0  0  0  0  0  0
   16.0990   -3.1228   14.9914 H   0  0  0  0  0  0  0  0  0  0  0  0
   16.7435   -4.0260   16.3643 H   0  0  0  0  0  0  0  0  0  0  0  0
   18.2953   -2.2743   16.4093 H   0  0  0  0  0  0  0  0  0  0  0  0
   17.1653   -1.1505   15.6319 H   0  0  0  0  0  0  0  0  0  0  0  0
   17.1166   -0.4164   17.9365 H   0  0  0  0  0  0  0  0  0  0  0  0
   17.1273   -2.0832   18.5473 H   0  0  0  0  0  0  0  0  0  0  0  0
   15.0223   -0.7516   17.0078 H   0  0  0  0  0  0  0  0  0  0  0  0
   14.1358   -1.1311   14.5567 H   0  0  0  0  0  0  0  0  0  0  0  0
  1  2  2  0
  2  3  1  0
  3  4  1  0
  4  5  1  0
  5  6  1  0
  6  7  1  0
  7  8  1  0
  3  9  2  0
  9 10  1  0
 10  1  1  0
  8  4  1  0
  1 11  1  0
  2 12  1  0
  4 13  1  0
  5 14  1  0
  5 15  1  0
  6 16  1  0
  6 17  1  0
  7 18  1  0
  7 19  1  0
  8 20  1  0
  9 21  1  0
M  END
>  <Energy>  (655) 
-0.43115129878856973

>  <compound_id>  (655) 
48331

>  <target_id>  (655) 
1

>  <reference_id>  (655) 
124

>  <inspiration_ids>  (655) 
[124, 76]

>  <energy_score>  (655) 
-17.707755456383445

>  <distance_score>  (655) 
2.615762168832509

>  <path>  (655) 
/opt/xchem-fragalysis-2/maxwin/BulkDock/SCRATCH/511024/C48331-P124/C48331-P124.minimised.mol

>  <scratch_subdir>  (655) 
/opt/xchem-fragalysis-2/maxwin/BulkDock/SCRATCH/511024/C48331-P124

>  <fragmenstein_runtime>  (655) 
5.583883762359619

>  <fragmenstein_outcome>  (655) 
too moved

>  <fragmenstein_mode>  (655) 
expansion

>  <fragmenstein_error>  (655) 


$$$$
C48331-P76
     RDKit          3D

 21 22  0  0  0  0  0  0  0  0999 V2000
   12.0484   -2.3404   14.9706 C   0  0  0  0  0  0  0  0  0  0  0  0
   13.3500   -1.9634   15.1653 C   0  0  0  0  0  0  0  0  0  0  0  0
   13.8456   -2.7745   16.2292 C   0  0  0  0  0  0  0  0  0  0  0  0
   15.2075   -2.7693   16.8191 C   0  0  0  0  0  0  0  0  0  0  0  0
   16.3307   -2.7755   15.7830 C   0  0  0  0  0  0  0  0  0  0  0  0
   17.1306   -1.5213   16.0780 C   0  0  0  0  0  0  0  0  0  0  0  0
   16.7955   -1.2113   17.5207 C   0  0  0  0  0  0  0  0  0  0  0  0
   15.3738   -1.5255   17.5860 N   0  0  0  0  0  0  0  0  0  0  0  0
   12.7937   -3.5835   16.5988 C   0  0  0  0  0  0  0  0  0  0  0  0
   11.7010   -3.3096   15.8515 O   0  0  0  0  0  0  0  0  0  0  0  0
   11.2738   -2.0238   14.2870 H   0  0  0  0  0  0  0  0  0  0  0  0
   13.8822   -1.1985   14.6166 H   0  0  0  0  0  0  0  0  0  0  0  0
   15.3335   -3.6311   17.4878 H   0  0  0  0  0  0  0  0  0  0  0  0
   16.0018   -2.7961   14.7392 H   0  0  0  0  0  0  0  0  0  0  0  0
   16.9667   -3.6556   15.9411 H   0  0  0  0  0  0  0  0  0  0  0  0
   18.2033   -1.6665   15.9193 H   0  0  0  0  0  0  0  0  0  0  0  0
   16.7983   -0.7046   15.4250 H   0  0  0  0  0  0  0  0  0  0  0  0
   16.9905   -0.1655   17.7734 H   0  0  0  0  0  0  0  0  0  0  0  0
   17.3658   -1.8514   18.2041 H   0  0  0  0  0  0  0  0  0  0  0  0
   15.0763   -1.6661   18.5488 H   0  0  0  0  0  0  0  0  0  0  0  0
   12.6672   -4.3581   17.3414 H   0  0  0  0  0  0  0  0  0  0  0  0
  1  2  2  0
  2  3  1  0
  3  4  1  0
  4  5  1  0
  5  6  1  0
  6  7  1  0
  7  8  1  0
  3  9  2  0
  9 10  1  0
 10  1  1  0
  8  4  1  0
  1 11  1  0
  2 12  1  0
  4 13  1  0
  5 14  1  0
  5 15  1  0
  6 16  1  0
  6 17  1  0
  7 18  1  0
  7 19  1  0
  8 20  1  0
  9 21  1  0
M  END
>  <Energy>  (656) 
-1.7792139347810334

>  <compound_id>  (656) 
48331

>  <target_id>  (656) 
1

>  <reference_id>  (656) 
76

>  <inspiration_ids>  (656) 
[124, 76]

>  <energy_score>  (656) 
-19.05581809237583

>  <distance_score>  (656) 
2.1084087593832797

>  <path>  (656) 
/opt/xchem-fragalysis-2/maxwin/BulkDock/SCRATCH/511024/C48331-P76/C48331-P76.minimised.mol

>  <scratch_subdir>  (656) 
/opt/xchem-fragalysis-2/maxwin/BulkDock/SCRATCH/511024/C48331-P76

>  <fragmenstein_runtime>  (656) 
5.420657396316528

>  <fragmenstein_outcome>  (656) 
too moved

>  <fragmenstein_mode>  (656) 
expansion

>  <fragmenstein_error>  (656) 


$$$$
C48338-P124
     RDKit          3D

 21 22  0  0  0  0  0  0  0  0999 V2000
   12.2306   -3.8458   16.3353 C   0  0  0  0  0  0  0  0  0  0  0  0
   13.4580   -3.4770   16.8115 C   0  0  0  0  0  0  0  0  0  0  0  0
   13.8782   -2.3911   16.0156 C   0  0  0  0  0  0  0  0  0  0  0  0
   15.0299   -1.6995   16.1512 N   0  0  0  0  0  0  0  0  0  0  0  0
   15.4476   -0.6860   15.1886 C   0  0  0  0  0  0  0  0  0  0  0  0
   16.8503   -0.3225   15.6416 C   0  0  0  0  0  0  0  0  0  0  0  0
   17.3720   -1.6245   16.2235 C   0  0  0  0  0  0  0  0  0  0  0  0
   16.1572   -2.1798   16.9476 C   0  0  0  0  0  0  0  0  0  0  0  0
   12.8637   -2.1558   15.1183 C   0  0  0  0  0  0  0  0  0  0  0  0
   11.8488   -3.0323   15.3255 O   0  0  0  0  0  0  0  0  0  0  0  0
   11.5388   -4.6282   16.5958 H   0  0  0  0  0  0  0  0  0  0  0  0
   13.9777   -3.9400   17.6348 H   0  0  0  0  0  0  0  0  0  0  0  0
   15.4761   -1.1056   14.1756 H   0  0  0  0  0  0  0  0  0  0  0  0
   14.7876    0.1878   15.1971 H   0  0  0  0  0  0  0  0  0  0  0  0
   17.4705    0.0560   14.8242 H   0  0  0  0  0  0  0  0  0  0  0  0
   16.8088    0.4461   16.4231 H   0  0  0  0  0  0  0  0  0  0  0  0
   17.6744   -2.3011   15.4150 H   0  0  0  0  0  0  0  0  0  0  0  0
   18.2279   -1.4808   16.8886 H   0  0  0  0  0  0  0  0  0  0  0  0
   16.0860   -1.7762   17.9638 H   0  0  0  0  0  0  0  0  0  0  0  0
   16.2208   -3.2720   17.0022 H   0  0  0  0  0  0  0  0  0  0  0  0
   12.7031   -1.4394   14.3248 H   0  0  0  0  0  0  0  0  0  0  0  0
  1  2  2  0
  2  3  1  0
  3  4  1  0
  4  5  1  0
  5  6  1  0
  6  7  1  0
  7  8  1  0
  3  9  2  0
  9 10  1  0
 10  1  1  0
  8  4  1  0
  1 11  1  0
  2 12  1  0
  5 13  1  0
  5 14  1  0
  6 15  1  0
  6 16  1  0
  7 17  1  0
  7 18  1  0
  8 19  1  0
  8 20  1  0
  9 21  1  0
M  END
>  <Energy>  (657) 
4.5906625553352294

>  <compound_id>  (657) 
48338

>  <target_id>  (657) 
1

>  <reference_id>  (657) 
124

>  <inspiration_ids>  (657) 
[124, 76]

>  <energy_score>  (657) 
-13.710922359842924

>  <distance_score>  (657) 
2.1786476772174623

>  <path>  (657) 
/opt/xchem-fragalysis-2/maxwin/BulkDock/SCRATCH/511024/C48338-P124/C48338-P124.minimised.mol

>  <scratch_subdir>  (657) 
/opt/xchem-fragalysis-2/maxwin/BulkDock/SCRATCH/511024/C48338-P124

>  <fragmenstein_runtime>  (657) 
14.35493516921997

>  <fragmenstein_outcome>  (657) 
too moved

>  <fragmenstein_mode>  (657) 
expansion

>  <fragmenstein_error>  (657) 


$$$$
C48338-P76
     RDKit          3D

 21 22  0  0  0  0  0  0  0  0999 V2000
   12.2851   -3.9392   16.4460 C   0  0  0  0  0  0  0  0  0  0  0  0
   13.5231   -3.5491   16.8760 C   0  0  0  0  0  0  0  0  0  0  0  0
   13.8794   -2.4347   16.0873 C   0  0  0  0  0  0  0  0  0  0  0  0
   15.0194   -1.7175   16.1840 N   0  0  0  0  0  0  0  0  0  0  0  0
   15.3752   -0.6857   15.2157 C   0  0  0  0  0  0  0  0  0  0  0  0
   16.7872   -0.2953   15.6145 C   0  0  0  0  0  0  0  0  0  0  0  0
   17.3600   -1.5902   16.1634 C   0  0  0  0  0  0  0  0  0  0  0  0
   16.1880   -2.1784   16.9307 C   0  0  0  0  0  0  0  0  0  0  0  0
   12.8221   -2.2092   15.2381 C   0  0  0  0  0  0  0  0  0  0  0  0
   11.8382   -3.1135   15.4725 O   0  0  0  0  0  0  0  0  0  0  0  0
   11.6248   -4.7459   16.7180 H   0  0  0  0  0  0  0  0  0  0  0  0
   14.0920   -4.0212   17.6614 H   0  0  0  0  0  0  0  0  0  0  0  0
   15.3711   -1.0950   14.1981 H   0  0  0  0  0  0  0  0  0  0  0  0
   14.6971    0.1731   15.2601 H   0  0  0  0  0  0  0  0  0  0  0  0
   17.3652    0.1031   14.7760 H   0  0  0  0  0  0  0  0  0  0  0  0
   16.7610    0.4659   16.4038 H   0  0  0  0  0  0  0  0  0  0  0  0
   17.6443   -2.2534   15.3372 H   0  0  0  0  0  0  0  0  0  0  0  0
   18.2389   -1.4330   16.7947 H   0  0  0  0  0  0  0  0  0  0  0  0
   16.1487   -1.7842   17.9523 H   0  0  0  0  0  0  0  0  0  0  0  0
   16.2789   -3.2691   16.9734 H   0  0  0  0  0  0  0  0  0  0  0  0
   12.6107   -1.4831   14.4653 H   0  0  0  0  0  0  0  0  0  0  0  0
  1  2  2  0
  2  3  1  0
  3  4  1  0
  4  5  1  0
  5  6  1  0
  6  7  1  0
  7  8  1  0
  3  9  2  0
  9 10  1  0
 10  1  1  0
  8  4  1  0
  1 11  1  0
  2 12  1  0
  5 13  1  0
  5 14  1  0
  6 15  1  0
  6 16  1  0
  7 17  1  0
  7 18  1  0
  8 19  1  0
  8 20  1  0
  9 21  1  0
M  END
>  <Energy>  (658) 
4.5963115391721603

>  <compound_id>  (658) 
48338

>  <target_id>  (658) 
1

>  <reference_id>  (658) 
76

>  <inspiration_ids>  (658) 
[124, 76]

>  <energy_score>  (658) 
-13.705273376006293

>  <distance_score>  (658) 
2.2023700481149775

>  <path>  (658) 
/opt/xchem-fragalysis-2/maxwin/BulkDock/SCRATCH/511024/C48338-P76/C48338-P76.minimised.mol

>  <scratch_subdir>  (658) 
/opt/xchem-fragalysis-2/maxwin/BulkDock/SCRATCH/511024/C48338-P76

>  <fragmenstein_runtime>  (658) 
14.546945810317993

>  <fragmenstein_outcome>  (658) 
too moved

>  <fragmenstein_mode>  (658) 
expansion

>  <fragmenstein_error>  (658) 


$$$$
C48363-P124
     RDKit          3D

 53 54  0  0  0  0  0  0  0  0999 V2000
   13.9905    0.7377   22.9130 C   0  0  0  0  0  0  0  0  0  0  0  0
   15.2163    1.1710   23.7168 C   0  0  0  0  0  0  0  0  0  0  0  0
   14.7790    2.0608   24.8848 C   0  0  0  0  0  0  0  0  0  0  0  0
   16.2520    1.9208   22.8543 C   0  0  0  0  0  0  0  0  0  0  0  0
   16.7992    1.1655   21.6170 C   0  0  0  0  0  0  0  0  0  0  0  0
   17.5098   -0.1424   22.0285 C   0  0  0  0  0  0  0  0  0  0  0  0
   17.9655   -0.9321   20.8912 N   0  0  0  0  0  0  0  0  0  0  0  0
   17.7368    2.1170   20.8477 C   0  0  0  0  0  0  0  0  0  0  0  0
   17.9331    1.7044   19.4117 C   0  0  0  0  0  0  0  0  0  0  0  0
   18.9697    1.2164   18.9782 O   0  0  0  0  0  0  0  0  0  0  0  0
   16.8119    1.9556   18.6846 O   0  0  0  0  0  0  0  0  0  0  0  0
   16.8749    1.5417   17.3144 C   0  0  0  0  0  0  0  0  0  0  0  0
   15.6564    2.0922   16.5820 C   0  0  0  0  0  0  0  0  0  0  0  0
   15.2489    0.9713   15.6457 C   0  0  0  0  0  0  0  0  0  0  0  0
   15.4892   -0.2191   16.4662 N   0  0  0  0  0  0  0  0  0  0  0  0
   15.4961   -1.4724   15.7058 C   0  0  0  0  0  0  0  0  0  0  0  0
   14.1054   -2.0200   15.5115 C   0  0  0  0  0  0  0  0  0  0  0  0
   13.2787   -1.5112   14.5053 C   0  0  0  0  0  0  0  0  0  0  0  0
   11.9796   -1.9810   14.3622 C   0  0  0  0  0  0  0  0  0  0  0  0
   11.4986   -2.9852   15.1935 C   0  0  0  0  0  0  0  0  0  0  0  0
   12.3165   -3.5141   16.1873 C   0  0  0  0  0  0  0  0  0  0  0  0
   13.6096   -3.0241   16.3577 C   0  0  0  0  0  0  0  0  0  0  0  0
   16.7731    0.0178   17.1409 C   0  0  0  0  0  0  0  0  0  0  0  0
   13.5245    1.5898   22.4068 H   0  0  0  0  0  0  0  0  0  0  0  0
   14.2550   -0.0064   22.1560 H   0  0  0  0  0  0  0  0  0  0  0  0
   13.2390    0.2814   23.5665 H   0  0  0  0  0  0  0  0  0  0  0  0
   15.6806    0.2778   24.1498 H   0  0  0  0  0  0  0  0  0  0  0  0
   14.0765    1.5301   25.5363 H   0  0  0  0  0  0  0  0  0  0  0  0
   15.6404    2.3546   25.4938 H   0  0  0  0  0  0  0  0  0  0  0  0
   14.2875    2.9727   24.5288 H   0  0  0  0  0  0  0  0  0  0  0  0
   17.0986    2.2074   23.4932 H   0  0  0  0  0  0  0  0  0  0  0  0
   15.7961    2.8606   22.5133 H   0  0  0  0  0  0  0  0  0  0  0  0
   15.9537    0.9103   20.9659 H   0  0  0  0  0  0  0  0  0  0  0  0
   18.3620    0.0765   22.6822 H   0  0  0  0  0  0  0  0  0  0  0  0
   16.8219   -0.7746   22.5975 H   0  0  0  0  0  0  0  0  0  0  0  0
   18.7446   -0.4699   20.4143 H   0  0  0  0  0  0  0  0  0  0  0  0
   18.3441   -1.8185   21.2247 H   0  0  0  0  0  0  0  0  0  0  0  0
   18.7191    2.1768   21.3316 H   0  0  0  0  0  0  0  0  0  0  0  0
   17.3438    3.1414   20.8318 H   0  0  0  0  0  0  0  0  0  0  0  0
   17.7879    1.9304   16.8445 H   0  0  0  0  0  0  0  0  0  0  0  0
   15.8945    3.0109   16.0361 H   0  0  0  0  0  0  0  0  0  0  0  0
   14.8485    2.3298   17.2852 H   0  0  0  0  0  0  0  0  0  0  0  0
   15.8781    0.9829   14.7469 H   0  0  0  0  0  0  0  0  0  0  0  0
   14.2021    1.0779   15.3495 H   0  0  0  0  0  0  0  0  0  0  0  0
   16.0734   -2.2324   16.2507 H   0  0  0  0  0  0  0  0  0  0  0  0
   16.0017   -1.3651   14.7369 H   0  0  0  0  0  0  0  0  0  0  0  0
   13.6319   -0.7301   13.8376 H   0  0  0  0  0  0  0  0  0  0  0  0
   11.3485   -1.5486   13.5962 H   0  0  0  0  0  0  0  0  0  0  0  0
   10.4936   -3.3647   15.0469 H   0  0  0  0  0  0  0  0  0  0  0  0
   11.9541   -4.3184   16.8205 H   0  0  0  0  0  0  0  0  0  0  0  0
   14.2326   -3.4290   17.1511 H   0  0  0  0  0  0  0  0  0  0  0  0
   16.8086   -0.5233   18.0911 H   0  0  0  0  0  0  0  0  0  0  0  0
   17.6113   -0.3164   16.5159 H   0  0  0  0  0  0  0  0  0  0  0  0
  1  2  1  0
  2  3  1  0
  2  4  1  0
  4  5  1  0
  5  6  1  0
  6  7  1  0
  5  8  1  0
  8  9  1  0
  9 10  2  0
  9 11  1  0
 11 12  1  0
 12 13  1  0
 13 14  1  0
 14 15  1  0
 15 16  1  0
 16 17  1  0
 17 18  2  0
 18 19  1  0
 19 20  2  0
 20 21  1  0
 21 22  2  0
 15 23  1  0
 23 12  1  0
 22 17  1  0
  1 24  1  0
  1 25  1  0
  1 26  1  0
  2 27  1  0
  3 28  1  0
  3 29  1  0
  3 30  1  0
  4 31  1  0
  4 32  1  0
  5 33  1  0
  6 34  1  0
  6 35  1  0
  7 36  1  0
  7 37  1  0
  8 38  1  0
  8 39  1  0
 12 40  1  0
 13 41  1  0
 13 42  1  0
 14 43  1  0
 14 44  1  0
 16 45  1  0
 16 46  1  0
 18 47  1  0
 19 48  1  0
 20 49  1  0
 21 50  1  0
 22 51  1  0
 23 52  1  0
 23 53  1  0
M  END
>  <Energy>  (659) 
33.743907632849144

>  <compound_id>  (659) 
48363

>  <target_id>  (659) 
1

>  <reference_id>  (659) 
124

>  <inspiration_ids>  (659) 
[124, 76]

>  <energy_score>  (659) 
-54.04219991879134

>  <distance_score>  (659) 
2.9826861582746305

>  <path>  (659) 
/opt/xchem-fragalysis-2/maxwin/BulkDock/SCRATCH/511024/C48363-P124/C48363-P124.minimised.mol

>  <scratch_subdir>  (659) 
/opt/xchem-fragalysis-2/maxwin/BulkDock/SCRATCH/511024/C48363-P124

>  <fragmenstein_runtime>  (659) 
15.465949773788452

>  <fragmenstein_outcome>  (659) 
too moved

>  <fragmenstein_mode>  (659) 
expansion

>  <fragmenstein_error>  (659) 


$$$$
C48363-P76
     RDKit          3D

 53 54  0  0  0  0  0  0  0  0999 V2000
   16.2568   -4.0983   22.3793 C   0  0  0  0  0  0  0  0  0  0  0  0
   16.1839   -4.0816   20.8514 C   0  0  0  0  0  0  0  0  0  0  0  0
   15.0560   -4.9993   20.3865 C   0  0  0  0  0  0  0  0  0  0  0  0
   17.5611   -4.4469   20.2542 C   0  0  0  0  0  0  0  0  0  0  0  0
   17.6281   -4.3347   18.7065 C   0  0  0  0  0  0  0  0  0  0  0  0
   17.4785   -5.7389   18.0734 C   0  0  0  0  0  0  0  0  0  0  0  0
   17.0818   -5.7032   16.6711 N   0  0  0  0  0  0  0  0  0  0  0  0
   18.9597   -3.6735   18.2924 C   0  0  0  0  0  0  0  0  0  0  0  0
   18.9094   -3.0766   16.9099 C   0  0  0  0  0  0  0  0  0  0  0  0
   19.1058   -3.7120   15.8817 O   0  0  0  0  0  0  0  0  0  0  0  0
   18.5993   -1.7559   16.9744 O   0  0  0  0  0  0  0  0  0  0  0  0
   18.4346   -1.0887   15.7072 C   0  0  0  0  0  0  0  0  0  0  0  0
   18.3167    0.4178   15.9753 C   0  0  0  0  0  0  0  0  0  0  0  0
   16.9048    0.7975   15.5415 C   0  0  0  0  0  0  0  0  0  0  0  0
   16.1808   -0.4669   15.6269 N   0  0  0  0  0  0  0  0  0  0  0  0
   14.8857   -0.4242   14.9462 C   0  0  0  0  0  0  0  0  0  0  0  0
   13.9529   -1.5661   15.2939 C   0  0  0  0  0  0  0  0  0  0  0  0
   12.7543   -1.6890   14.5731 C   0  0  0  0  0  0  0  0  0  0  0  0
   11.8140   -2.6543   14.9233 C   0  0  0  0  0  0  0  0  0  0  0  0
   12.0661   -3.5127   15.9879 C   0  0  0  0  0  0  0  0  0  0  0  0
   13.2482   -3.4143   16.7094 C   0  0  0  0  0  0  0  0  0  0  0  0
   14.1823   -2.4406   16.3707 C   0  0  0  0  0  0  0  0  0  0  0  0
   17.1015   -1.4590   15.0504 C   0  0  0  0  0  0  0  0  0  0  0  0
   16.4915   -5.0998   22.7570 H   0  0  0  0  0  0  0  0  0  0  0  0
   17.0256   -3.4112   22.7368 H   0  0  0  0  0  0  0  0  0  0  0  0
   15.3047   -3.7878   22.8181 H   0  0  0  0  0  0  0  0  0  0  0  0
   15.9365   -3.0583   20.5408 H   0  0  0  0  0  0  0  0  0  0  0  0
   14.1093   -4.7276   20.8706 H   0  0  0  0  0  0  0  0  0  0  0  0
   14.8998   -4.9168   19.3063 H   0  0  0  0  0  0  0  0  0  0  0  0
   15.2700   -6.0471   20.6265 H   0  0  0  0  0  0  0  0  0  0  0  0
   17.8504   -5.4547   20.5777 H   0  0  0  0  0  0  0  0  0  0  0  0
   18.2970   -3.7713   20.7046 H   0  0  0  0  0  0  0  0  0  0  0  0
   16.8042   -3.6937   18.3666 H   0  0  0  0  0  0  0  0  0  0  0  0
   18.4206   -6.2921   18.1660 H   0  0  0  0  0  0  0  0  0  0  0  0
   16.7241   -6.3224   18.6103 H   0  0  0  0  0  0  0  0  0  0  0  0
   17.1747   -6.6383   16.2762 H   0  0  0  0  0  0  0  0  0  0  0  0
   17.7352   -5.1333   16.1196 H   0  0  0  0  0  0  0  0  0  0  0  0
   19.2264   -2.8621   18.9801 H   0  0  0  0  0  0  0  0  0  0  0  0
   19.7947   -4.3804   18.3349 H   0  0  0  0  0  0  0  0  0  0  0  0
   19.2942   -1.3031   15.0603 H   0  0  0  0  0  0  0  0  0  0  0  0
   19.0510    0.9798   15.3873 H   0  0  0  0  0  0  0  0  0  0  0  0
   18.4777    0.6499   17.0350 H   0  0  0  0  0  0  0  0  0  0  0  0
   16.9218    1.1888   14.5162 H   0  0  0  0  0  0  0  0  0  0  0  0
   16.4785    1.5628   16.1982 H   0  0  0  0  0  0  0  0  0  0  0  0
   14.3622    0.4935   15.2521 H   0  0  0  0  0  0  0  0  0  0  0  0
   15.0179   -0.3740   13.8562 H   0  0  0  0  0  0  0  0  0  0  0  0
   12.5295   -1.0099   13.7522 H   0  0  0  0  0  0  0  0  0  0  0  0
   10.8898   -2.7410   14.3611 H   0  0  0  0  0  0  0  0  0  0  0  0
   11.3530   -4.2871   16.2450 H   0  0  0  0  0  0  0  0  0  0  0  0
   13.4375   -4.0912   17.5361 H   0  0  0  0  0  0  0  0  0  0  0  0
   15.0865   -2.3583   16.9688 H   0  0  0  0  0  0  0  0  0  0  0  0
   16.7925   -2.4843   15.2682 H   0  0  0  0  0  0  0  0  0  0  0  0
   17.1799   -1.3355   13.9623 H   0  0  0  0  0  0  0  0  0  0  0  0
  1  2  1  0
  2  3  1  0
  2  4  1  0
  4  5  1  0
  5  6  1  0
  6  7  1  0
  5  8  1  0
  8  9  1  0
  9 10  2  0
  9 11  1  0
 11 12  1  0
 12 13  1  0
 13 14  1  0
 14 15  1  0
 15 16  1  0
 16 17  1  0
 17 18  2  0
 18 19  1  0
 19 20  2  0
 20 21  1  0
 21 22  2  0
 15 23  1  0
 23 12  1  0
 22 17  1  0
  1 24  1  0
  1 25  1  0
  1 26  1  0
  2 27  1  0
  3 28  1  0
  3 29  1  0
  3 30  1  0
  4 31  1  0
  4 32  1  0
  5 33  1  0
  6 34  1  0
  6 35  1  0
  7 36  1  0
  7 37  1  0
  8 38  1  0
  8 39  1  0
 12 40  1  0
 13 41  1  0
 13 42  1  0
 14 43  1  0
 14 44  1  0
 16 45  1  0
 16 46  1  0
 18 47  1  0
 19 48  1  0
 20 49  1  0
 21 50  1  0
 22 51  1  0
 23 52  1  0
 23 53  1  0
M  END
>  <Energy>  (660) 
37.108088607473206

>  <compound_id>  (660) 
48363

>  <target_id>  (660) 
1

>  <reference_id>  (660) 
76

>  <inspiration_ids>  (660) 
[124, 76]

>  <energy_score>  (660) 
-46.28208837446863

>  <distance_score>  (660) 
2.0920092297999613

>  <path>  (660) 
/opt/xchem-fragalysis-2/maxwin/BulkDock/SCRATCH/511024/C48363-P76/C48363-P76.minimised.mol

>  <scratch_subdir>  (660) 
/opt/xchem-fragalysis-2/maxwin/BulkDock/SCRATCH/511024/C48363-P76

>  <fragmenstein_runtime>  (660) 
17.107754230499268

>  <fragmenstein_outcome>  (660) 
too moved

>  <fragmenstein_mode>  (660) 
expansion

>  <fragmenstein_error>  (660) 


$$$$
C48364-P124
     RDKit          3D

 55 56  0  0  0  0  0  0  0  0999 V2000
   17.8598    0.7693   17.5750 C   0  0  0  0  0  0  0  0  0  0  0  0
   18.0180    1.2431   16.1312 C   0  0  0  0  0  0  0  0  0  0  0  0
   19.0909    0.4339   15.3808 C   0  0  0  0  0  0  0  0  0  0  0  0
   18.6679   -0.9176   15.0826 N   0  0  0  0  0  0  0  0  0  0  0  0
   18.4632   -1.5836   13.8313 C   0  0  0  0  0  0  0  0  0  0  0  0
   18.5134   -1.1707   12.7081 O   0  0  0  0  0  0  0  0  0  0  0  0
   18.0139   -3.0470   14.0889 C   0  0  0  0  0  0  0  0  0  0  0  0
   18.3565   -3.4983   15.4712 N   0  0  0  0  0  0  0  0  0  0  0  0
   19.7774   -3.8896   15.5649 C   0  0  0  0  0  0  0  0  0  0  0  0
   19.8641   -5.3345   15.0948 C   0  0  0  0  0  0  0  0  0  0  0  0
   18.4509   -5.8820   15.2177 C   0  0  0  0  0  0  0  0  0  0  0  0
   17.6330   -4.7396   15.7972 C   0  0  0  0  0  0  0  0  0  0  0  0
   16.7458    1.1685   15.4486 N   0  0  0  0  0  0  0  0  0  0  0  0
   15.6204    2.0506   15.4614 C   0  0  0  0  0  0  0  0  0  0  0  0
   15.4705    3.1198   15.9793 O   0  0  0  0  0  0  0  0  0  0  0  0
   14.4431    1.3846   14.7008 C   0  0  0  0  0  0  0  0  0  0  0  0
   14.9153    0.2931   13.8000 N   0  0  0  0  0  0  0  0  0  0  0  0
   15.3773    0.8661   12.5259 C   0  0  0  0  0  0  0  0  0  0  0  0
   13.8259   -0.6685   13.5345 C   0  0  0  0  0  0  0  0  0  0  0  0
   13.5407   -1.6240   14.6780 C   0  0  0  0  0  0  0  0  0  0  0  0
   12.2812   -2.2356   14.7490 C   0  0  0  0  0  0  0  0  0  0  0  0
   12.0095   -3.1826   15.7346 C   0  0  0  0  0  0  0  0  0  0  0  0
   12.9849   -3.5280   16.6673 C   0  0  0  0  0  0  0  0  0  0  0  0
   14.2407   -2.9337   16.6103 C   0  0  0  0  0  0  0  0  0  0  0  0
   14.5199   -1.9978   15.6133 C   0  0  0  0  0  0  0  0  0  0  0  0
   17.4960   -0.2630   17.6230 H   0  0  0  0  0  0  0  0  0  0  0  0
   17.1359    1.3936   18.1105 H   0  0  0  0  0  0  0  0  0  0  0  0
   18.8127    0.8236   18.1113 H   0  0  0  0  0  0  0  0  0  0  0  0
   18.3152    2.2981   16.1550 H   0  0  0  0  0  0  0  0  0  0  0  0
   20.0168    0.3739   15.9615 H   0  0  0  0  0  0  0  0  0  0  0  0
   19.3179    0.9212   14.4260 H   0  0  0  0  0  0  0  0  0  0  0  0
   18.4610   -1.5684   15.8426 H   0  0  0  0  0  0  0  0  0  0  0  0
   16.9254   -3.0418   13.9587 H   0  0  0  0  0  0  0  0  0  0  0  0
   18.4555   -3.6908   13.3201 H   0  0  0  0  0  0  0  0  0  0  0  0
   20.0785   -3.8314   16.6185 H   0  0  0  0  0  0  0  0  0  0  0  0
   20.4544   -3.2319   15.0092 H   0  0  0  0  0  0  0  0  0  0  0  0
   20.5727   -5.9084   15.7007 H   0  0  0  0  0  0  0  0  0  0  0  0
   20.1956   -5.3874   14.0515 H   0  0  0  0  0  0  0  0  0  0  0  0
   18.0779   -6.1689   14.2288 H   0  0  0  0  0  0  0  0  0  0  0  0
   18.4130   -6.7688   15.8585 H   0  0  0  0  0  0  0  0  0  0  0  0
   16.5956   -4.7482   15.4481 H   0  0  0  0  0  0  0  0  0  0  0  0
   17.5943   -4.8371   16.8896 H   0  0  0  0  0  0  0  0  0  0  0  0
   16.5416    0.3780   14.8325 H   0  0  0  0  0  0  0  0  0  0  0  0
   13.8806    2.1494   14.1532 H   0  0  0  0  0  0  0  0  0  0  0  0
   13.8015    0.9804   15.4878 H   0  0  0  0  0  0  0  0  0  0  0  0
   14.5675    1.3642   11.9803 H   0  0  0  0  0  0  0  0  0  0  0  0
   16.1810    1.5928   12.6863 H   0  0  0  0  0  0  0  0  0  0  0  0
   15.7928    0.0805   11.8850 H   0  0  0  0  0  0  0  0  0  0  0  0
   14.1013   -1.3067   12.6837 H   0  0  0  0  0  0  0  0  0  0  0  0
   12.9098   -0.1316   13.2543 H   0  0  0  0  0  0  0  0  0  0  0  0
   11.5106   -1.9936   14.0188 H   0  0  0  0  0  0  0  0  0  0  0  0
   11.0434   -3.6765   15.7492 H   0  0  0  0  0  0  0  0  0  0  0  0
   12.7626   -4.2697   17.4286 H   0  0  0  0  0  0  0  0  0  0  0  0
   15.0097   -3.2063   17.3276 H   0  0  0  0  0  0  0  0  0  0  0  0
   15.5169   -1.5692   15.5667 H   0  0  0  0  0  0  0  0  0  0  0  0
  1  2  1  0
  2  3  1  0
  3  4  1  0
  4  5  1  0
  5  6  2  0
  5  7  1  0
  7  8  1  0
  8  9  1  0
  9 10  1  0
 10 11  1  0
 11 12  1  0
  2 13  1  0
 13 14  1  0
 14 15  2  0
 14 16  1  0
 16 17  1  0
 17 18  1  0
 17 19  1  0
 19 20  1  0
 20 21  2  0
 21 22  1  0
 22 23  2  0
 23 24  1  0
 24 25  2  0
 12  8  1  0
 25 20  1  0
  1 26  1  0
  1 27  1  0
  1 28  1  0
  2 29  1  0
  3 30  1  0
  3 31  1  0
  4 32  1  0
  7 33  1  0
  7 34  1  0
  9 35  1  0
  9 36  1  0
 10 37  1  0
 10 38  1  0
 11 39  1  0
 11 40  1  0
 12 41  1  0
 12 42  1  0
 13 43  1  0
 16 44  1  0
 16 45  1  0
 18 46  1  0
 18 47  1  0
 18 48  1  0
 19 49  1  0
 19 50  1  0
 21 51  1  0
 22 52  1  0
 23 53  1  0
 24 54  1  0
 25 55  1  0
M  END
>  <Energy>  (661) 
83.756499419451231

>  <compound_id>  (661) 
48364

>  <target_id>  (661) 
1

>  <reference_id>  (661) 
124

>  <inspiration_ids>  (661) 
[124, 76]

>  <energy_score>  (661) 
-72.44079623775713

>  <distance_score>  (661) 
2.7485240238474034

>  <path>  (661) 
/opt/xchem-fragalysis-2/maxwin/BulkDock/SCRATCH/511024/C48364-P124/C48364-P124.minimised.mol

>  <scratch_subdir>  (661) 
/opt/xchem-fragalysis-2/maxwin/BulkDock/SCRATCH/511024/C48364-P124

>  <fragmenstein_runtime>  (661) 
17.68118143081665

>  <fragmenstein_outcome>  (661) 
too moved

>  <fragmenstein_mode>  (661) 
expansion

>  <fragmenstein_error>  (661) 


$$$$
C48364-P76
     RDKit          3D

 55 56  0  0  0  0  0  0  0  0999 V2000
   17.7220    2.3328   15.2057 C   0  0  0  0  0  0  0  0  0  0  0  0
   17.3521    2.4893   13.7345 C   0  0  0  0  0  0  0  0  0  0  0  0
   18.5213    2.1425   12.7974 C   0  0  0  0  0  0  0  0  0  0  0  0
   18.9598    0.7720   12.8994 N   0  0  0  0  0  0  0  0  0  0  0  0
   20.2187    0.1638   12.5931 C   0  0  0  0  0  0  0  0  0  0  0  0
   21.2578    0.6481   12.2475 O   0  0  0  0  0  0  0  0  0  0  0  0
   20.0843   -1.3742   12.6837 C   0  0  0  0  0  0  0  0  0  0  0  0
   19.1123   -1.7788   13.7241 N   0  0  0  0  0  0  0  0  0  0  0  0
   18.8091   -3.2106   13.6358 C   0  0  0  0  0  0  0  0  0  0  0  0
   18.1981   -3.5295   14.9921 C   0  0  0  0  0  0  0  0  0  0  0  0
   18.7140   -2.4410   15.9265 C   0  0  0  0  0  0  0  0  0  0  0  0
   19.6605   -1.6088   15.0768 C   0  0  0  0  0  0  0  0  0  0  0  0
   16.1579    1.7250   13.4252 N   0  0  0  0  0  0  0  0  0  0  0  0
   15.3246    1.7155   12.2613 C   0  0  0  0  0  0  0  0  0  0  0  0
   15.3524    2.3924   11.2741 O   0  0  0  0  0  0  0  0  0  0  0  0
   14.1789    0.6956   12.4579 C   0  0  0  0  0  0  0  0  0  0  0  0
   14.5764   -0.4205   13.3632 N   0  0  0  0  0  0  0  0  0  0  0  0
   15.3762   -1.4029   12.6079 C   0  0  0  0  0  0  0  0  0  0  0  0
   13.3528   -1.0693   13.8852 C   0  0  0  0  0  0  0  0  0  0  0  0
   13.5626   -1.9189   15.1238 C   0  0  0  0  0  0  0  0  0  0  0  0
   12.5725   -2.8484   15.4804 C   0  0  0  0  0  0  0  0  0  0  0  0
   12.7394   -3.6676   16.5980 C   0  0  0  0  0  0  0  0  0  0  0  0
   13.8673   -3.5345   17.4037 C   0  0  0  0  0  0  0  0  0  0  0  0
   14.8345   -2.5855   17.0903 C   0  0  0  0  0  0  0  0  0  0  0  0
   14.6817   -1.7813   15.9594 C   0  0  0  0  0  0  0  0  0  0  0  0
   17.9175    1.2864   15.4632 H   0  0  0  0  0  0  0  0  0  0  0  0
   18.6121    2.9208   15.4513 H   0  0  0  0  0  0  0  0  0  0  0  0
   16.9021    2.6757   15.8465 H   0  0  0  0  0  0  0  0  0  0  0  0
   17.0914    3.5384   13.5488 H   0  0  0  0  0  0  0  0  0  0  0  0
   19.3848    2.7868   12.9967 H   0  0  0  0  0  0  0  0  0  0  0  0
   18.2352    2.3004   11.7517 H   0  0  0  0  0  0  0  0  0  0  0  0
   18.2727    0.0399   13.0781 H   0  0  0  0  0  0  0  0  0  0  0  0
   19.7345   -1.7064   11.6983 H   0  0  0  0  0  0  0  0  0  0  0  0
   21.0745   -1.8100   12.8632 H   0  0  0  0  0  0  0  0  0  0  0  0
   19.7176   -3.8099   13.4917 H   0  0  0  0  0  0  0  0  0  0  0  0
   18.1181   -3.4273   12.8165 H   0  0  0  0  0  0  0  0  0  0  0  0
   18.4917   -4.5271   15.3347 H   0  0  0  0  0  0  0  0  0  0  0  0
   17.1044   -3.5003   14.9479 H   0  0  0  0  0  0  0  0  0  0  0  0
   17.8791   -1.8271   16.2816 H   0  0  0  0  0  0  0  0  0  0  0  0
   19.2178   -2.8609   16.8028 H   0  0  0  0  0  0  0  0  0  0  0  0
   19.6720   -0.5635   15.3992 H   0  0  0  0  0  0  0  0  0  0  0  0
   20.6789   -2.0103   15.1580 H   0  0  0  0  0  0  0  0  0  0  0  0
   15.8907    0.9471   14.0308 H   0  0  0  0  0  0  0  0  0  0  0  0
   13.3581    1.2774   12.8964 H   0  0  0  0  0  0  0  0  0  0  0  0
   13.8528    0.3242   11.4805 H   0  0  0  0  0  0  0  0  0  0  0  0
   14.8172   -1.8367   11.7704 H   0  0  0  0  0  0  0  0  0  0  0  0
   16.2829   -0.9399   12.2053 H   0  0  0  0  0  0  0  0  0  0  0  0
   15.7080   -2.2205   13.2545 H   0  0  0  0  0  0  0  0  0  0  0  0
   12.6310   -0.3027   14.1769 H   0  0  0  0  0  0  0  0  0  0  0  0
   12.8769   -1.6735   13.1026 H   0  0  0  0  0  0  0  0  0  0  0  0
   11.6845   -2.9659   14.8604 H   0  0  0  0  0  0  0  0  0  0  0  0
   11.9924   -4.4211   16.8331 H   0  0  0  0  0  0  0  0  0  0  0  0
   13.9861   -4.1620   18.2822 H   0  0  0  0  0  0  0  0  0  0  0  0
   15.7125   -2.4734   17.7209 H   0  0  0  0  0  0  0  0  0  0  0  0
   15.4521   -1.0494   15.7289 H   0  0  0  0  0  0  0  0  0  0  0  0
  1  2  1  0
  2  3  1  0
  3  4  1  0
  4  5  1  0
  5  6  2  0
  5  7  1  0
  7  8  1  0
  8  9  1  0
  9 10  1  0
 10 11  1  0
 11 12  1  0
  2 13  1  0
 13 14  1  0
 14 15  2  0
 14 16  1  0
 16 17  1  0
 17 18  1  0
 17 19  1  0
 19 20  1  0
 20 21  2  0
 21 22  1  0
 22 23  2  0
 23 24  1  0
 24 25  2  0
 12  8  1  0
 25 20  1  0
  1 26  1  0
  1 27  1  0
  1 28  1  0
  2 29  1  0
  3 30  1  0
  3 31  1  0
  4 32  1  0
  7 33  1  0
  7 34  1  0
  9 35  1  0
  9 36  1  0
 10 37  1  0
 10 38  1  0
 11 39  1  0
 11 40  1  0
 12 41  1  0
 12 42  1  0
 13 43  1  0
 16 44  1  0
 16 45  1  0
 18 46  1  0
 18 47  1  0
 18 48  1  0
 19 49  1  0
 19 50  1  0
 21 51  1  0
 22 52  1  0
 23 53  1  0
 24 54  1  0
 25 55  1  0
M  END
>  <Energy>  (662) 
81.365780862506369

>  <compound_id>  (662) 
48364

>  <target_id>  (662) 
1

>  <reference_id>  (662) 
76

>  <inspiration_ids>  (662) 
[124, 76]

>  <energy_score>  (662) 
-74.83151479470337

>  <distance_score>  (662) 
4.169648660876069

>  <path>  (662) 
/opt/xchem-fragalysis-2/maxwin/BulkDock/SCRATCH/511024/C48364-P76/C48364-P76.minimised.mol

>  <scratch_subdir>  (662) 
/opt/xchem-fragalysis-2/maxwin/BulkDock/SCRATCH/511024/C48364-P76

>  <fragmenstein_runtime>  (662) 
19.882628202438354

>  <fragmenstein_outcome>  (662) 
too moved

>  <fragmenstein_mode>  (662) 
expansion

>  <fragmenstein_error>  (662) 


$$$$
C48365-P124
     RDKit          3D

 55 56  0  0  0  0  0  0  0  0999 V2000
   19.0601   -1.8916   14.9426 C   0  0  0  0  0  0  0  0  0  0  0  0
   18.8793   -3.2875   15.5344 C   0  0  0  0  0  0  0  0  0  0  0  0
   19.0558   -4.3541   14.4378 C   0  0  0  0  0  0  0  0  0  0  0  0
   18.9910   -5.7112   14.9354 N   0  0  0  0  0  0  0  0  0  0  0  0
   17.8436   -6.4650   15.6635 C   0  0  0  0  0  0  0  0  0  0  0  0
   16.8051   -6.0816   16.0407 O   0  0  0  0  0  0  0  0  0  0  0  0
   18.3042   -7.9290   15.8456 C   0  0  0  0  0  0  0  0  0  0  0  0
   17.8519   -8.7437   14.7126 N   0  0  0  0  0  0  0  0  0  0  0  0
   17.8619  -10.1734   15.0279 C   0  0  0  0  0  0  0  0  0  0  0  0
   17.6271  -10.8017   13.6665 C   0  0  0  0  0  0  0  0  0  0  0  0
   18.2994   -9.8505   12.6843 C   0  0  0  0  0  0  0  0  0  0  0  0
   18.6526   -8.6111   13.4994 C   0  0  0  0  0  0  0  0  0  0  0  0
   17.5953   -3.3854   16.1994 N   0  0  0  0  0  0  0  0  0  0  0  0
   17.0301   -2.6091   17.4268 C   0  0  0  0  0  0  0  0  0  0  0  0
   17.4861   -1.7211   18.0367 O   0  0  0  0  0  0  0  0  0  0  0  0
   15.6078   -3.2432   17.7372 C   0  0  0  0  0  0  0  0  0  0  0  0
   14.5073   -2.8382   16.7490 C   0  0  0  0  0  0  0  0  0  0  0  0
   13.2707   -3.5139   16.7605 C   0  0  0  0  0  0  0  0  0  0  0  0
   12.2644   -3.2041   15.8402 C   0  0  0  0  0  0  0  0  0  0  0  0
   12.4712   -2.2093   14.8919 C   0  0  0  0  0  0  0  0  0  0  0  0
   13.6798   -1.5188   14.8767 C   0  0  0  0  0  0  0  0  0  0  0  0
   14.6850   -1.8264   15.7991 C   0  0  0  0  0  0  0  0  0  0  0  0
   15.1685   -3.0827   19.1538 N   0  0  0  0  0  0  0  0  0  0  0  0
   15.0970   -1.6976   19.6144 C   0  0  0  0  0  0  0  0  0  0  0  0
   15.9871   -3.8775   20.0673 C   0  0  0  0  0  0  0  0  0  0  0  0
   18.2854   -1.6745   14.1987 H   0  0  0  0  0  0  0  0  0  0  0  0
   20.0374   -1.7951   14.4584 H   0  0  0  0  0  0  0  0  0  0  0  0
   18.9949   -1.1222   15.7192 H   0  0  0  0  0  0  0  0  0  0  0  0
   19.6359   -3.4352   16.3141 H   0  0  0  0  0  0  0  0  0  0  0  0
   20.0250   -4.2406   13.9413 H   0  0  0  0  0  0  0  0  0  0  0  0
   18.2665   -4.2547   13.6861 H   0  0  0  0  0  0  0  0  0  0  0  0
   19.7180   -6.3676   14.6793 H   0  0  0  0  0  0  0  0  0  0  0  0
   19.3866   -7.9896   16.0067 H   0  0  0  0  0  0  0  0  0  0  0  0
   17.8325   -8.2732   16.7755 H   0  0  0  0  0  0  0  0  0  0  0  0
   18.8329  -10.4903   15.4296 H   0  0  0  0  0  0  0  0  0  0  0  0
   17.0789  -10.4534   15.7389 H   0  0  0  0  0  0  0  0  0  0  0  0
   16.5529  -10.8561   13.4507 H   0  0  0  0  0  0  0  0  0  0  0  0
   18.0350  -11.8151   13.6032 H   0  0  0  0  0  0  0  0  0  0  0  0
   19.1998  -10.3000   12.2519 H   0  0  0  0  0  0  0  0  0  0  0  0
   17.6162   -9.6102   11.8626 H   0  0  0  0  0  0  0  0  0  0  0  0
   18.4167   -7.6973   12.9457 H   0  0  0  0  0  0  0  0  0  0  0  0
   19.7275   -8.6168   13.7198 H   0  0  0  0  0  0  0  0  0  0  0  0
   16.9696   -4.1610   15.9675 H   0  0  0  0  0  0  0  0  0  0  0  0
   15.7284   -4.3224   17.5868 H   0  0  0  0  0  0  0  0  0  0  0  0
   13.0842   -4.2906   17.4982 H   0  0  0  0  0  0  0  0  0  0  0  0
   11.3308   -3.7585   15.8538 H   0  0  0  0  0  0  0  0  0  0  0  0
   11.6963   -1.9717   14.1664 H   0  0  0  0  0  0  0  0  0  0  0  0
   13.8406   -0.7327   14.1425 H   0  0  0  0  0  0  0  0  0  0  0  0
   15.6096   -1.2553   15.7496 H   0  0  0  0  0  0  0  0  0  0  0  0
   14.5958   -1.0499   18.8893 H   0  0  0  0  0  0  0  0  0  0  0  0
   16.0726   -1.2615   19.8484 H   0  0  0  0  0  0  0  0  0  0  0  0
   14.5051   -1.6506   20.5347 H   0  0  0  0  0  0  0  0  0  0  0  0
   17.0316   -3.5486   20.0938 H   0  0  0  0  0  0  0  0  0  0  0  0
   15.5868   -3.8221   21.0860 H   0  0  0  0  0  0  0  0  0  0  0  0
   15.9661   -4.9362   19.7855 H   0  0  0  0  0  0  0  0  0  0  0  0
  1  2  1  0
  2  3  1  0
  3  4  1  0
  4  5  1  0
  5  6  2  0
  5  7  1  0
  7  8  1  0
  8  9  1  0
  9 10  1  0
 10 11  1  0
 11 12  1  0
  2 13  1  0
 13 14  1  0
 14 15  2  0
 14 16  1  0
 16 17  1  0
 17 18  2  0
 18 19  1  0
 19 20  2  0
 20 21  1  0
 21 22  2  0
 16 23  1  0
 23 24  1  0
 23 25  1  0
 12  8  1  0
 22 17  1  0
  1 26  1  0
  1 27  1  0
  1 28  1  0
  2 29  1  0
  3 30  1  0
  3 31  1  0
  4 32  1  0
  7 33  1  0
  7 34  1  0
  9 35  1  0
  9 36  1  0
 10 37  1  0
 10 38  1  0
 11 39  1  0
 11 40  1  0
 12 41  1  0
 12 42  1  0
 13 43  1  0
 16 44  1  0
 18 45  1  0
 19 46  1  0
 20 47  1  0
 21 48  1  0
 22 49  1  0
 24 50  1  0
 24 51  1  0
 24 52  1  0
 25 53  1  0
 25 54  1  0
 25 55  1  0
M  END
>  <Energy>  (663) 
141.8239001736726

>  <compound_id>  (663) 
48365

>  <target_id>  (663) 
1

>  <reference_id>  (663) 
124

>  <inspiration_ids>  (663) 
[124, 76]

>  <energy_score>  (663) 
-29.077815160461313

>  <distance_score>  (663) 
3.378574195913051

>  <path>  (663) 
/opt/xchem-fragalysis-2/maxwin/BulkDock/SCRATCH/511024/C48365-P124/C48365-P124.minimised.mol

>  <scratch_subdir>  (663) 
/opt/xchem-fragalysis-2/maxwin/BulkDock/SCRATCH/511024/C48365-P124

>  <fragmenstein_runtime>  (663) 
38.026992321014404

>  <fragmenstein_outcome>  (663) 
too moved

>  <fragmenstein_mode>  (663) 
expansion

>  <fragmenstein_error>  (663) 


$$$$
C48365-P76
     RDKit          3D

 55 56  0  0  0  0  0  0  0  0999 V2000
   18.9921   -1.5972   15.4630 C   0  0  0  0  0  0  0  0  0  0  0  0
   18.6947   -3.0356   15.8770 C   0  0  0  0  0  0  0  0  0  0  0  0
   18.7754   -3.9689   14.6620 C   0  0  0  0  0  0  0  0  0  0  0  0
   18.6040   -5.3598   15.0078 N   0  0  0  0  0  0  0  0  0  0  0  0
   18.4414   -6.6135   14.1007 C   0  0  0  0  0  0  0  0  0  0  0  0
   18.4989   -6.7195   12.9367 O   0  0  0  0  0  0  0  0  0  0  0  0
   18.1652   -7.8123   15.0373 C   0  0  0  0  0  0  0  0  0  0  0  0
   19.3650   -8.5468   15.4466 N   0  0  0  0  0  0  0  0  0  0  0  0
   20.3989   -7.7806   16.1283 C   0  0  0  0  0  0  0  0  0  0  0  0
   21.5302   -8.7929   16.2216 C   0  0  0  0  0  0  0  0  0  0  0  0
   21.3499   -9.6968   15.0048 C   0  0  0  0  0  0  0  0  0  0  0  0
   20.0428   -9.2501   14.3601 C   0  0  0  0  0  0  0  0  0  0  0  0
   17.3972   -3.1070   16.5255 N   0  0  0  0  0  0  0  0  0  0  0  0
   16.9163   -2.5324   17.8930 C   0  0  0  0  0  0  0  0  0  0  0  0
   17.4713   -1.8501   18.6661 O   0  0  0  0  0  0  0  0  0  0  0  0
   15.4354   -3.0052   18.1538 C   0  0  0  0  0  0  0  0  0  0  0  0
   14.4547   -2.8588   16.9797 C   0  0  0  0  0  0  0  0  0  0  0  0
   13.2582   -3.5951   16.9247 C   0  0  0  0  0  0  0  0  0  0  0  0
   12.2974   -3.3448   15.9380 C   0  0  0  0  0  0  0  0  0  0  0  0
   12.5110   -2.3611   14.9791 C   0  0  0  0  0  0  0  0  0  0  0  0
   13.6857   -1.6198   15.0151 C   0  0  0  0  0  0  0  0  0  0  0  0
   14.6342   -1.8526   16.0156 C   0  0  0  0  0  0  0  0  0  0  0  0
   15.3708   -4.3359   18.8387 N   0  0  0  0  0  0  0  0  0  0  0  0
   15.3474   -4.1519   20.2954 C   0  0  0  0  0  0  0  0  0  0  0  0
   16.4414   -5.2649   18.4850 C   0  0  0  0  0  0  0  0  0  0  0  0
   18.2469   -1.2290   14.7488 H   0  0  0  0  0  0  0  0  0  0  0  0
   19.9803   -1.5199   14.9980 H   0  0  0  0  0  0  0  0  0  0  0  0
   18.9755   -0.9274   16.3295 H   0  0  0  0  0  0  0  0  0  0  0  0
   19.4302   -3.3386   16.6315 H   0  0  0  0  0  0  0  0  0  0  0  0
   19.7475   -3.8848   14.1645 H   0  0  0  0  0  0  0  0  0  0  0  0
   18.0077   -3.7227   13.9205 H   0  0  0  0  0  0  0  0  0  0  0  0
   18.4114   -5.6110   15.9705 H   0  0  0  0  0  0  0  0  0  0  0  0
   17.4741   -8.4861   14.5151 H   0  0  0  0  0  0  0  0  0  0  0  0
   17.6159   -7.4793   15.9254 H   0  0  0  0  0  0  0  0  0  0  0  0
   20.7376   -6.9173   15.5443 H   0  0  0  0  0  0  0  0  0  0  0  0
   20.0824   -7.4382   17.1183 H   0  0  0  0  0  0  0  0  0  0  0  0
   21.4409   -9.3869   17.1392 H   0  0  0  0  0  0  0  0  0  0  0  0
   22.5118   -8.3089   16.2294 H   0  0  0  0  0  0  0  0  0  0  0  0
   22.1875   -9.5989   14.3063 H   0  0  0  0  0  0  0  0  0  0  0  0
   21.2966  -10.7445   15.3220 H   0  0  0  0  0  0  0  0  0  0  0  0
   19.4637  -10.1051   13.9969 H   0  0  0  0  0  0  0  0  0  0  0  0
   20.2649   -8.5931   13.5115 H   0  0  0  0  0  0  0  0  0  0  0  0
   16.6279   -3.5957   16.0723 H   0  0  0  0  0  0  0  0  0  0  0  0
   15.0423   -2.2477   18.8519 H   0  0  0  0  0  0  0  0  0  0  0  0
   13.0422   -4.3492   17.6788 H   0  0  0  0  0  0  0  0  0  0  0  0
   11.3848   -3.9326   15.9150 H   0  0  0  0  0  0  0  0  0  0  0  0
   11.7678   -2.1722   14.2070 H   0  0  0  0  0  0  0  0  0  0  0  0
   13.8505   -0.8355   14.2792 H   0  0  0  0  0  0  0  0  0  0  0  0
   15.5073   -1.2017   16.0383 H   0  0  0  0  0  0  0  0  0  0  0  0
   14.4813   -3.5509   20.5952 H   0  0  0  0  0  0  0  0  0  0  0  0
   16.2568   -3.6660   20.6662 H   0  0  0  0  0  0  0  0  0  0  0  0
   15.2400   -5.1172   20.8034 H   0  0  0  0  0  0  0  0  0  0  0  0
   17.4324   -4.9201   18.8005 H   0  0  0  0  0  0  0  0  0  0  0  0
   16.2734   -6.2366   18.9638 H   0  0  0  0  0  0  0  0  0  0  0  0
   16.4565   -5.4542   17.4083 H   0  0  0  0  0  0  0  0  0  0  0  0
  1  2  1  0
  2  3  1  0
  3  4  1  0
  4  5  1  0
  5  6  2  0
  5  7  1  0
  7  8  1  0
  8  9  1  0
  9 10  1  0
 10 11  1  0
 11 12  1  0
  2 13  1  0
 13 14  1  0
 14 15  2  0
 14 16  1  0
 16 17  1  0
 17 18  2  0
 18 19  1  0
 19 20  2  0
 20 21  1  0
 21 22  2  0
 16 23  1  0
 23 24  1  0
 23 25  1  0
 12  8  1  0
 22 17  1  0
  1 26  1  0
  1 27  1  0
  1 28  1  0
  2 29  1  0
  3 30  1  0
  3 31  1  0
  4 32  1  0
  7 33  1  0
  7 34  1  0
  9 35  1  0
  9 36  1  0
 10 37  1  0
 10 38  1  0
 11 39  1  0
 11 40  1  0
 12 41  1  0
 12 42  1  0
 13 43  1  0
 16 44  1  0
 18 45  1  0
 19 46  1  0
 20 47  1  0
 21 48  1  0
 22 49  1  0
 24 50  1  0
 24 51  1  0
 24 52  1  0
 25 53  1  0
 25 54  1  0
 25 55  1  0
M  END
>  <Energy>  (664) 
148.00064217108482

>  <compound_id>  (664) 
48365

>  <target_id>  (664) 
1

>  <reference_id>  (664) 
76

>  <inspiration_ids>  (664) 
[124, 76]

>  <energy_score>  (664) 
-22.901073163048693

>  <distance_score>  (664) 
3.282124999834419

>  <path>  (664) 
/opt/xchem-fragalysis-2/maxwin/BulkDock/SCRATCH/511024/C48365-P76/C48365-P76.minimised.mol

>  <scratch_subdir>  (664) 
/opt/xchem-fragalysis-2/maxwin/BulkDock/SCRATCH/511024/C48365-P76

>  <fragmenstein_runtime>  (664) 
36.85401201248169

>  <fragmenstein_outcome>  (664) 
too moved

>  <fragmenstein_mode>  (664) 
expansion

>  <fragmenstein_error>  (664) 


$$$$
C46094-P101
     RDKit          3D

 45 47  0  0  0  0  0  0  0  0999 V2000
   -3.8921  -16.5413   20.9859 C   0  0  0  0  0  0  0  0  0  0  0  0
   -2.8786  -15.9798   20.2656 N   0  0  0  0  0  0  0  0  0  0  0  0
   -2.1410  -17.0943   19.7789 C   0  0  0  0  0  0  0  0  0  0  0  0
   -1.0294  -16.4556   20.0331 C   0  0  0  0  0  0  0  0  0  0  0  0
   -1.4135  -15.3255   19.3410 N   0  0  0  0  0  0  0  0  0  0  0  0
   -2.1265  -14.6772   20.2621 C   0  0  0  0  0  0  0  0  0  0  0  0
   -2.3722  -12.6586   20.2229 C   0  0  0  0  0  0  0  0  0  0  0  0
   -1.4497  -11.1304   20.2678 N   0  0  0  0  0  0  0  0  0  0  0  0
   -2.3901  -10.7828   19.1065 C   0  0  0  0  0  0  0  0  0  0  0  0
   -2.2919   -9.3656   18.4974 C   0  0  0  0  0  0  0  0  0  0  0  0
   -3.0774   -8.4411   19.2047 O   0  0  0  0  0  0  0  0  0  0  0  0
   -1.4456   -9.9716   21.3162 C   0  0  0  0  0  0  0  0  0  0  0  0
   -2.1397   -9.8011   22.2979 O   0  0  0  0  0  0  0  0  0  0  0  0
   -0.0955   -8.7939   21.0469 C   0  0  0  0  0  0  0  0  0  0  0  0
    0.7346   -7.7145   22.0769 C   0  0  0  0  0  0  0  0  0  0  0  0
    1.5273   -6.2795   21.7258 C   0  0  0  0  0  0  0  0  0  0  0  0
    2.3116   -5.5294   22.6054 C   0  0  0  0  0  0  0  0  0  0  0  0
    3.0627   -4.6474   21.8549 N   0  0  0  0  0  0  0  0  0  0  0  0
    4.0787   -3.7725   22.2505 C   0  0  0  0  0  0  0  0  0  0  0  0
    4.6324   -2.9530   21.3408 C   0  0  0  0  0  0  0  0  0  0  0  0
    4.1237   -2.9804   19.9798 C   0  0  0  0  0  0  0  0  0  0  0  0
    3.1933   -3.8747   19.5888 C   0  0  0  0  0  0  0  0  0  0  0  0
    2.6345   -4.7766   20.5424 C   0  0  0  0  0  0  0  0  0  0  0  0
    1.7729   -5.7717   20.4282 N   0  0  0  0  0  0  0  0  0  0  0  0
   -4.1721  -17.2888   20.1252 H   0  0  0  0  0  0  0  0  0  0  0  0
   -4.9874  -16.6690   21.1456 H   0  0  0  0  0  0  0  0  0  0  0  0
   -3.8852  -16.4687   22.0270 H   0  0  0  0  0  0  0  0  0  0  0  0
   -2.4703  -18.1206   19.7162 H   0  0  0  0  0  0  0  0  0  0  0  0
   -0.0071  -16.7146   20.2581 H   0  0  0  0  0  0  0  0  0  0  0  0
   -1.5025  -12.7999   20.7626 H   0  0  0  0  0  0  0  0  0  0  0  0
   -2.1491  -12.7822   19.1404 H   0  0  0  0  0  0  0  0  0  0  0  0
   -3.4241  -10.9159   19.4393 H   0  0  0  0  0  0  0  0  0  0  0  0
   -2.1376  -11.3778   18.2242 H   0  0  0  0  0  0  0  0  0  0  0  0
   -2.7234   -9.3963   17.4925 H   0  0  0  0  0  0  0  0  0  0  0  0
   -1.2826   -8.9767   18.3981 H   0  0  0  0  0  0  0  0  0  0  0  0
   -3.0930   -7.6207   18.6821 H   0  0  0  0  0  0  0  0  0  0  0  0
   -0.2208   -8.3663   20.0580 H   0  0  0  0  0  0  0  0  0  0  0  0
    0.7232   -9.5082   20.9737 H   0  0  0  0  0  0  0  0  0  0  0  0
    0.1844   -7.6198   23.0175 H   0  0  0  0  0  0  0  0  0  0  0  0
    1.6291   -8.2564   22.3614 H   0  0  0  0  0  0  0  0  0  0  0  0
    2.4600   -5.6150   23.6687 H   0  0  0  0  0  0  0  0  0  0  0  0
    4.3682   -3.7913   23.2925 H   0  0  0  0  0  0  0  0  0  0  0  0
    5.4201   -2.2543   21.5955 H   0  0  0  0  0  0  0  0  0  0  0  0
    4.5245   -2.2553   19.2798 H   0  0  0  0  0  0  0  0  0  0  0  0
    2.8244   -3.9113   18.5708 H   0  0  0  0  0  0  0  0  0  0  0  0
  1  2  1  0
  2  3  1  0
  3  4  2  0
  4  5  1  0
  5  6  2  0
  6  7  1  0
  7  8  1  0
  8  9  1  0
  9 10  1  0
 10 11  1  0
  8 12  1  0
 12 13  2  0
 12 14  1  0
 14 15  1  0
 15 16  1  0
 16 17  2  0
 17 18  1  0
 18 19  1  0
 19 20  2  0
 20 21  1  0
 21 22  2  0
 22 23  1  0
 23 24  2  0
  6  2  1  0
 24 16  1  0
 23 18  1  0
  1 25  1  0
  1 26  1  0
  1 27  1  0
  3 28  1  0
  4 29  1  0
  7 30  1  0
  7 31  1  0
  9 32  1  0
  9 33  1  0
 10 34  1  0
 10 35  1  0
 11 36  1  0
 14 37  1  0
 14 38  1  0
 15 39  1  0
 15 40  1  0
 17 41  1  0
 19 42  1  0
 20 43  1  0
 21 44  1  0
 22 45  1  0
M  END
>  <Energy>  (665) 
514.70309812852793

>  <compound_id>  (665) 
46094

>  <target_id>  (665) 
1

>  <reference_id>  (665) 
101

>  <inspiration_ids>  (665) 
[101, 8]

>  <energy_score>  (665) 
461.6835931426908

>  <distance_score>  (665) 
13.987477387184645

>  <path>  (665) 
/opt/xchem-fragalysis-2/maxwin/BulkDock/SCRATCH/511024/C46094-P101/C46094-P101.minimised.mol

>  <scratch_subdir>  (665) 
/opt/xchem-fragalysis-2/maxwin/BulkDock/SCRATCH/511024/C46094-P101

>  <fragmenstein_runtime>  (665) 
21.354758501052856

>  <fragmenstein_outcome>  (665) 
too moved

>  <fragmenstein_mode>  (665) 
expansion

>  <fragmenstein_error>  (665) 


$$$$
C46094-P8
     RDKit          3D

 45 47  0  0  0  0  0  0  0  0999 V2000
   -2.6719  -19.7310   26.5591 C   0  0  0  0  0  0  0  0  0  0  0  0
   -1.9241  -18.3962   26.1461 N   0  0  0  0  0  0  0  0  0  0  0  0
   -1.0990  -17.9373   27.1116 C   0  0  0  0  0  0  0  0  0  0  0  0
   -1.8969  -16.8674   27.4190 C   0  0  0  0  0  0  0  0  0  0  0  0
   -2.8528  -16.7909   26.5334 N   0  0  0  0  0  0  0  0  0  0  0  0
   -2.3591  -17.0095   25.3172 C   0  0  0  0  0  0  0  0  0  0  0  0
   -1.2792  -15.5848   24.2785 C   0  0  0  0  0  0  0  0  0  0  0  0
   -1.2605  -14.6345   22.6918 N   0  0  0  0  0  0  0  0  0  0  0  0
   -2.6248  -14.9548   23.2587 C   0  0  0  0  0  0  0  0  0  0  0  0
   -2.2337  -15.0417   21.1409 C   0  0  0  0  0  0  0  0  0  0  0  0
   -2.9994  -16.0136   20.3908 O   0  0  0  0  0  0  0  0  0  0  0  0
   -0.3373  -12.9502   22.3951 C   0  0  0  0  0  0  0  0  0  0  0  0
    0.3953  -12.3163   23.0319 O   0  0  0  0  0  0  0  0  0  0  0  0
   -1.1464  -12.0829   20.6037 C   0  0  0  0  0  0  0  0  0  0  0  0
   -1.2590  -10.2313   20.9531 C   0  0  0  0  0  0  0  0  0  0  0  0
   -1.0390   -8.9618   19.8327 C   0  0  0  0  0  0  0  0  0  0  0  0
   -1.6165   -8.6884   18.5854 C   0  0  0  0  0  0  0  0  0  0  0  0
   -0.7031   -7.9005   17.8545 N   0  0  0  0  0  0  0  0  0  0  0  0
   -0.7609   -7.4410   16.5296 C   0  0  0  0  0  0  0  0  0  0  0  0
    0.2606   -6.7343   16.0070 C   0  0  0  0  0  0  0  0  0  0  0  0
    1.3867   -6.3922   16.8506 C   0  0  0  0  0  0  0  0  0  0  0  0
    1.4332   -6.8161   18.1255 C   0  0  0  0  0  0  0  0  0  0  0  0
    0.4005   -7.6668   18.6578 C   0  0  0  0  0  0  0  0  0  0  0  0
    0.2218   -8.2490   19.8429 N   0  0  0  0  0  0  0  0  0  0  0  0
   -3.0600  -20.2176   25.6595 H   0  0  0  0  0  0  0  0  0  0  0  0
   -3.4085  -19.5742   27.3488 H   0  0  0  0  0  0  0  0  0  0  0  0
   -1.9858  -20.4022   27.0917 H   0  0  0  0  0  0  0  0  0  0  0  0
   -0.1811  -18.3787   27.4792 H   0  0  0  0  0  0  0  0  0  0  0  0
   -1.6919  -15.9435   27.9491 H   0  0  0  0  0  0  0  0  0  0  0  0
   -0.6280  -14.7428   24.5108 H   0  0  0  0  0  0  0  0  0  0  0  0
   -1.9535  -14.9370   24.9935 H   0  0  0  0  0  0  0  0  0  0  0  0
   -3.2510  -15.7908   23.5173 H   0  0  0  0  0  0  0  0  0  0  0  0
   -3.5456  -14.4745   23.5780 H   0  0  0  0  0  0  0  0  0  0  0  0
   -1.3743  -15.6967   20.8631 H   0  0  0  0  0  0  0  0  0  0  0  0
   -2.0769  -14.1085   20.6722 H   0  0  0  0  0  0  0  0  0  0  0  0
   -2.6643  -16.8808   20.6678 H   0  0  0  0  0  0  0  0  0  0  0  0
   -0.9299  -12.0578   19.5527 H   0  0  0  0  0  0  0  0  0  0  0  0
   -2.2275  -12.2421   20.6216 H   0  0  0  0  0  0  0  0  0  0  0  0
   -0.5426  -10.0349   21.7566 H   0  0  0  0  0  0  0  0  0  0  0  0
   -2.2772  -10.0818   21.3314 H   0  0  0  0  0  0  0  0  0  0  0  0
   -2.5026   -9.0738   18.1101 H   0  0  0  0  0  0  0  0  0  0  0  0
   -1.6466   -7.6959   15.9632 H   0  0  0  0  0  0  0  0  0  0  0  0
    0.2434   -6.3750   14.9837 H   0  0  0  0  0  0  0  0  0  0  0  0
    2.1580   -5.7438   16.4483 H   0  0  0  0  0  0  0  0  0  0  0  0
    2.2319   -6.4860   18.7726 H   0  0  0  0  0  0  0  0  0  0  0  0
  1  2  1  0
  2  3  1  0
  3  4  2  0
  4  5  1  0
  5  6  2  0
  6  7  1  0
  7  8  1  0
  8  9  1  0
  9 10  1  0
 10 11  1  0
  8 12  1  0
 12 13  2  0
 12 14  1  0
 14 15  1  0
 15 16  1  0
 16 17  2  0
 17 18  1  0
 18 19  1  0
 19 20  2  0
 20 21  1  0
 21 22  2  0
 22 23  1  0
 23 24  2  0
  6  2  1  0
 24 16  1  0
 23 18  1  0
  1 25  1  0
  1 26  1  0
  1 27  1  0
  3 28  1  0
  4 29  1  0
  7 30  1  0
  7 31  1  0
  9 32  1  0
  9 33  1  0
 10 34  1  0
 10 35  1  0
 11 36  1  0
 14 37  1  0
 14 38  1  0
 15 39  1  0
 15 40  1  0
 17 41  1  0
 19 42  1  0
 20 43  1  0
 21 44  1  0
 22 45  1  0
M  END
>  <Energy>  (666) 
974.48789858579039

>  <compound_id>  (666) 
46094

>  <target_id>  (666) 
1

>  <reference_id>  (666) 
8

>  <inspiration_ids>  (666) 
[101, 8]

>  <energy_score>  (666) 
921.4683935999601

>  <distance_score>  (666) 
14.974575310647094

>  <path>  (666) 
/opt/xchem-fragalysis-2/maxwin/BulkDock/SCRATCH/511024/C46094-P8/C46094-P8.minimised.mol

>  <scratch_subdir>  (666) 
/opt/xchem-fragalysis-2/maxwin/BulkDock/SCRATCH/511024/C46094-P8

>  <fragmenstein_runtime>  (666) 
31.890182495117188

>  <fragmenstein_outcome>  (666) 
too moved

>  <fragmenstein_mode>  (666) 
expansion

>  <fragmenstein_error>  (666) 


$$$$
C46096-P101
     RDKit          3D

 30 33  0  0  0  0  0  0  0  0999 V2000
    1.3933  -11.9608   25.9700 C   0  0  0  0  0  0  0  0  0  0  0  0
    2.1756  -12.0793   24.2228 N   0  0  0  0  0  0  0  0  0  0  0  0
    2.1249  -13.3723   24.0824 C   0  0  0  0  0  0  0  0  0  0  0  0
    3.0828  -13.8965   23.3550 C   0  0  0  0  0  0  0  0  0  0  0  0
    3.4320  -12.9325   22.3497 N   0  0  0  0  0  0  0  0  0  0  0  0
    3.4916  -11.8215   22.9635 C   0  0  0  0  0  0  0  0  0  0  0  0
    5.5415  -11.0017   23.4051 C   0  0  0  0  0  0  0  0  0  0  0  0
    6.7765  -11.6378   23.3349 N   0  0  0  0  0  0  0  0  0  0  0  0
    7.7173  -11.2508   24.2352 O   0  0  0  0  0  0  0  0  0  0  0  0
    7.4279  -10.0395   24.7630 C   0  0  0  0  0  0  0  0  0  0  0  0
    8.4625   -9.1188   25.2305 C   0  0  0  0  0  0  0  0  0  0  0  0
    9.7616   -9.4828   25.5575 C   0  0  0  0  0  0  0  0  0  0  0  0
   10.6417   -8.4312   25.4579 N   0  0  0  0  0  0  0  0  0  0  0  0
    9.9111   -7.3949   25.1181 C   0  0  0  0  0  0  0  0  0  0  0  0
   10.3069   -6.0861   24.7100 C   0  0  0  0  0  0  0  0  0  0  0  0
    9.3747   -5.1778   24.3753 C   0  0  0  0  0  0  0  0  0  0  0  0
    7.9633   -5.5033   24.4510 C   0  0  0  0  0  0  0  0  0  0  0  0
    7.5750   -6.7462   24.7987 C   0  0  0  0  0  0  0  0  0  0  0  0
    8.5387   -7.7150   25.1132 N   0  0  0  0  0  0  0  0  0  0  0  0
    6.1430   -9.8869   24.5671 N   0  0  0  0  0  0  0  0  0  0  0  0
    0.4088  -11.4977   26.3265 H   0  0  0  0  0  0  0  0  0  0  0  0
    1.4007  -13.0412   26.3178 H   0  0  0  0  0  0  0  0  0  0  0  0
    1.7600  -11.2059   26.7227 H   0  0  0  0  0  0  0  0  0  0  0  0
    1.1603  -13.8866   24.2268 H   0  0  0  0  0  0  0  0  0  0  0  0
    3.2070  -14.9482   23.1711 H   0  0  0  0  0  0  0  0  0  0  0  0
   10.1317  -10.4860   25.7356 H   0  0  0  0  0  0  0  0  0  0  0  0
   11.3652   -5.8560   24.6614 H   0  0  0  0  0  0  0  0  0  0  0  0
    9.6598   -4.1836   24.0457 H   0  0  0  0  0  0  0  0  0  0  0  0
    7.2471   -4.7384   24.1865 H   0  0  0  0  0  0  0  0  0  0  0  0
    6.5378   -7.0615   24.7892 H   0  0  0  0  0  0  0  0  0  0  0  0
  1  2  1  0
  2  3  1  0
  3  4  2  0
  4  5  1  0
  5  6  2  0
  6  7  1  0
  7  8  2  0
  8  9  1  0
  9 10  1  0
 10 11  1  0
 11 12  2  0
 12 13  1  0
 13 14  2  0
 14 15  1  0
 15 16  2  0
 16 17  1  0
 17 18  2  0
 18 19  1  0
 10 20  2  0
  6  2  1  0
 20  7  1  0
 19 11  1  0
 19 14  1  0
  1 21  1  0
  1 22  1  0
  1 23  1  0
  3 24  1  0
  4 25  1  0
 12 26  1  0
 15 27  1  0
 16 28  1  0
 17 29  1  0
 18 30  1  0
M  END
>  <Energy>  (667) 
492.69306973261115

>  <compound_id>  (667) 
46096

>  <target_id>  (667) 
1

>  <reference_id>  (667) 
101

>  <inspiration_ids>  (667) 
[101, 8]

>  <energy_score>  (667) 
402.4575260841626

>  <distance_score>  (667) 
14.795625070362714

>  <path>  (667) 
/opt/xchem-fragalysis-2/maxwin/BulkDock/SCRATCH/511024/C46096-P101/C46096-P101.minimised.mol

>  <scratch_subdir>  (667) 
/opt/xchem-fragalysis-2/maxwin/BulkDock/SCRATCH/511024/C46096-P101

>  <fragmenstein_runtime>  (667) 
13.735295534133911

>  <fragmenstein_outcome>  (667) 
too moved

>  <fragmenstein_mode>  (667) 
expansion

>  <fragmenstein_error>  (667) 


$$$$
C46096-P8
     RDKit          3D

 30 33  0  0  0  0  0  0  0  0999 V2000
    1.6474  -15.1157   17.4347 C   0  0  0  0  0  0  0  0  0  0  0  0
    3.0602  -15.3819   17.6914 N   0  0  0  0  0  0  0  0  0  0  0  0
    3.4456  -16.5674   17.0531 C   0  0  0  0  0  0  0  0  0  0  0  0
    4.4765  -17.0076   17.7901 C   0  0  0  0  0  0  0  0  0  0  0  0
    4.8026  -16.0208   18.7147 N   0  0  0  0  0  0  0  0  0  0  0  0
    4.2706  -14.7550   18.4023 C   0  0  0  0  0  0  0  0  0  0  0  0
    5.0475  -13.0019   19.3010 C   0  0  0  0  0  0  0  0  0  0  0  0
    5.8192  -12.8715   20.3881 N   0  0  0  0  0  0  0  0  0  0  0  0
    6.7725  -11.8389   20.2664 O   0  0  0  0  0  0  0  0  0  0  0  0
    6.8698  -10.9647   19.0831 C   0  0  0  0  0  0  0  0  0  0  0  0
    8.4844  -10.6318   18.0242 C   0  0  0  0  0  0  0  0  0  0  0  0
    9.9783  -11.1133   18.1129 C   0  0  0  0  0  0  0  0  0  0  0  0
   10.5857  -11.9087   17.2152 N   0  0  0  0  0  0  0  0  0  0  0  0
    9.7880  -11.7911   16.2257 C   0  0  0  0  0  0  0  0  0  0  0  0
    9.8656  -12.4681   14.9834 C   0  0  0  0  0  0  0  0  0  0  0  0
    9.2861  -11.9319   13.9086 C   0  0  0  0  0  0  0  0  0  0  0  0
    8.7011  -10.6321   14.0220 C   0  0  0  0  0  0  0  0  0  0  0  0
    8.6783   -9.9829   15.2060 C   0  0  0  0  0  0  0  0  0  0  0  0
    8.9344  -10.6751   16.4257 N   0  0  0  0  0  0  0  0  0  0  0  0
    5.7394  -11.6472   18.5770 N   0  0  0  0  0  0  0  0  0  0  0  0
    1.4484  -15.2200   16.3593 H   0  0  0  0  0  0  0  0  0  0  0  0
    1.0457  -15.8875   17.9237 H   0  0  0  0  0  0  0  0  0  0  0  0
    1.3394  -14.1289   17.7282 H   0  0  0  0  0  0  0  0  0  0  0  0
    2.8574  -17.0308   16.2735 H   0  0  0  0  0  0  0  0  0  0  0  0
    5.0125  -17.9474   17.7559 H   0  0  0  0  0  0  0  0  0  0  0  0
   10.7594  -10.7861   18.7975 H   0  0  0  0  0  0  0  0  0  0  0  0
   10.3847  -13.4191   14.9399 H   0  0  0  0  0  0  0  0  0  0  0  0
    9.3100  -12.4285   12.9444 H   0  0  0  0  0  0  0  0  0  0  0  0
    8.3080  -10.2024   13.1056 H   0  0  0  0  0  0  0  0  0  0  0  0
    8.3929   -8.9505   15.1688 H   0  0  0  0  0  0  0  0  0  0  0  0
  1  2  1  0
  2  3  1  0
  3  4  2  0
  4  5  1  0
  5  6  2  0
  6  7  1  0
  7  8  2  0
  8  9  1  0
  9 10  1  0
 10 11  1  0
 11 12  2  0
 12 13  1  0
 13 14  2  0
 14 15  1  0
 15 16  2  0
 16 17  1  0
 17 18  2  0
 18 19  1  0
 10 20  2  0
  6  2  1  0
 20  7  1  0
 19 11  1  0
 19 14  1  0
  1 21  1  0
  1 22  1  0
  1 23  1  0
  3 24  1  0
  4 25  1  0
 12 26  1  0
 15 27  1  0
 16 28  1  0
 17 29  1  0
 18 30  1  0
M  END
>  <Energy>  (668) 
494.11369748349637

>  <compound_id>  (668) 
46096

>  <target_id>  (668) 
1

>  <reference_id>  (668) 
8

>  <inspiration_ids>  (668) 
[101, 8]

>  <energy_score>  (668) 
403.8781538350513

>  <distance_score>  (668) 
15.110600850669785

>  <path>  (668) 
/opt/xchem-fragalysis-2/maxwin/BulkDock/SCRATCH/511024/C46096-P8/C46096-P8.minimised.mol

>  <scratch_subdir>  (668) 
/opt/xchem-fragalysis-2/maxwin/BulkDock/SCRATCH/511024/C46096-P8

>  <fragmenstein_runtime>  (668) 
9.91933560371399

>  <fragmenstein_outcome>  (668) 
too moved

>  <fragmenstein_mode>  (668) 
expansion

>  <fragmenstein_error>  (668) 


$$$$
C46101-P101
     RDKit          3D

 35 37  0  0  0  0  0  0  0  0999 V2000
   -1.6737   -9.4355   15.4651 C   0  0  0  0  0  0  0  0  0  0  0  0
   -0.9619  -10.7157   15.2427 C   0  0  0  0  0  0  0  0  0  0  0  0
   -1.5387  -11.9424   15.5250 N   0  0  0  0  0  0  0  0  0  0  0  0
   -0.6245  -12.9043   15.2187 C   0  0  0  0  0  0  0  0  0  0  0  0
    0.4951  -12.3635   14.7794 N   0  0  0  0  0  0  0  0  0  0  0  0
    0.3360  -10.9797   14.7871 C   0  0  0  0  0  0  0  0  0  0  0  0
    1.4918   -9.9764   14.3590 C   0  0  0  0  0  0  0  0  0  0  0  0
    2.8270   -9.9531   15.2397 C   0  0  0  0  0  0  0  0  0  0  0  0
    3.0853  -10.9714   15.8198 O   0  0  0  0  0  0  0  0  0  0  0  0
    3.4892   -8.6333   15.2768 N   0  0  0  0  0  0  0  0  0  0  0  0
    4.6090   -8.1333   16.1122 C   0  0  0  0  0  0  0  0  0  0  0  0
    5.8619   -7.3986   15.5909 C   0  0  0  0  0  0  0  0  0  0  0  0
    6.8797   -7.7764   14.6674 C   0  0  0  0  0  0  0  0  0  0  0  0
    8.5233   -6.8517   14.9336 N   0  0  0  0  0  0  0  0  0  0  0  0
   10.4839   -6.5905   15.0915 C   0  0  0  0  0  0  0  0  0  0  0  0
   10.7595   -4.9400   14.8740 C   0  0  0  0  0  0  0  0  0  0  0  0
    9.7248   -3.8369   15.0407 C   0  0  0  0  0  0  0  0  0  0  0  0
    8.3955   -4.0559   15.4097 C   0  0  0  0  0  0  0  0  0  0  0  0
    7.5742   -5.7055   15.7880 C   0  0  0  0  0  0  0  0  0  0  0  0
    6.4332   -6.2533   16.3190 N   0  0  0  0  0  0  0  0  0  0  0  0
   -1.6417   -8.8186   14.5616 H   0  0  0  0  0  0  0  0  0  0  0  0
   -2.7244   -9.5979   15.7257 H   0  0  0  0  0  0  0  0  0  0  0  0
   -1.2028   -8.8775   16.2806 H   0  0  0  0  0  0  0  0  0  0  0  0
   -2.4702  -12.1007   15.8838 H   0  0  0  0  0  0  0  0  0  0  0  0
   -0.8126  -13.9634   15.3346 H   0  0  0  0  0  0  0  0  0  0  0  0
    1.7868  -10.2371   13.3362 H   0  0  0  0  0  0  0  0  0  0  0  0
    1.0658   -8.9669   14.3503 H   0  0  0  0  0  0  0  0  0  0  0  0
    3.0538   -8.0247   14.5964 H   0  0  0  0  0  0  0  0  0  0  0  0
    4.1300   -7.4562   16.8299 H   0  0  0  0  0  0  0  0  0  0  0  0
    4.9624   -8.9950   16.6910 H   0  0  0  0  0  0  0  0  0  0  0  0
    6.7317   -8.3281   13.7290 H   0  0  0  0  0  0  0  0  0  0  0  0
   11.0385   -6.7617   16.0062 H   0  0  0  0  0  0  0  0  0  0  0  0
   11.0781   -4.5672   13.8725 H   0  0  0  0  0  0  0  0  0  0  0  0
   10.0583   -2.8321   14.7780 H   0  0  0  0  0  0  0  0  0  0  0  0
    7.6944   -3.2061   15.3529 H   0  0  0  0  0  0  0  0  0  0  0  0
  1  2  1  0
  2  3  1  0
  3  4  1  0
  4  5  2  0
  5  6  1  0
  6  7  1  0
  7  8  1  0
  8  9  2  0
  8 10  1  0
 10 11  1  0
 11 12  1  0
 12 13  2  0
 13 14  1  0
 14 15  1  0
 15 16  2  0
 16 17  1  0
 17 18  2  0
 18 19  1  0
 19 20  2  0
  6  2  2  0
 20 12  1  0
 19 14  1  0
  1 21  1  0
  1 22  1  0
  1 23  1  0
  3 24  1  0
  4 25  1  0
  7 26  1  0
  7 27  1  0
 10 28  1  0
 11 29  1  0
 11 30  1  0
 13 31  1  0
 15 32  1  0
 16 33  1  0
 17 34  1  0
 18 35  1  0
M  END
>  <Energy>  (669) 
509.01730083311281

>  <compound_id>  (669) 
46101

>  <target_id>  (669) 
1

>  <reference_id>  (669) 
101

>  <inspiration_ids>  (669) 
[101, 8]

>  <energy_score>  (669) 
442.89135991379396

>  <distance_score>  (669) 
15.706077754350899

>  <path>  (669) 
/opt/xchem-fragalysis-2/maxwin/BulkDock/SCRATCH/511024/C46101-P101/C46101-P101.minimised.mol

>  <scratch_subdir>  (669) 
/opt/xchem-fragalysis-2/maxwin/BulkDock/SCRATCH/511024/C46101-P101

>  <fragmenstein_runtime>  (669) 
19.431020498275757

>  <fragmenstein_outcome>  (669) 
too moved

>  <fragmenstein_mode>  (669) 
expansion

>  <fragmenstein_error>  (669) 


$$$$
C46101-P8
     RDKit          3D

 35 37  0  0  0  0  0  0  0  0999 V2000
    2.8088  -15.9110   14.7645 C   0  0  0  0  0  0  0  0  0  0  0  0
    3.6787  -16.3662   15.8764 C   0  0  0  0  0  0  0  0  0  0  0  0
    3.3846  -17.5183   16.5681 N   0  0  0  0  0  0  0  0  0  0  0  0
    4.5043  -17.8474   17.2658 C   0  0  0  0  0  0  0  0  0  0  0  0
    5.3784  -16.8657   17.2681 N   0  0  0  0  0  0  0  0  0  0  0  0
    4.8954  -15.8947   16.3928 C   0  0  0  0  0  0  0  0  0  0  0  0
    5.8233  -14.7065   15.8994 C   0  0  0  0  0  0  0  0  0  0  0  0
    5.9534  -13.3922   16.7851 C   0  0  0  0  0  0  0  0  0  0  0  0
    5.5426  -13.4550   17.9123 O   0  0  0  0  0  0  0  0  0  0  0  0
    6.5222  -12.2416   16.0247 N   0  0  0  0  0  0  0  0  0  0  0  0
    6.6608  -10.8133   16.3928 C   0  0  0  0  0  0  0  0  0  0  0  0
    7.6620   -9.8321   15.7784 C   0  0  0  0  0  0  0  0  0  0  0  0
    9.4478   -9.4837   15.8592 C   0  0  0  0  0  0  0  0  0  0  0  0
    9.7507   -7.6820   15.3814 N   0  0  0  0  0  0  0  0  0  0  0  0
   11.1820   -6.5483   15.7944 C   0  0  0  0  0  0  0  0  0  0  0  0
   11.3042   -5.0579   15.8625 C   0  0  0  0  0  0  0  0  0  0  0  0
   10.1466   -4.1502   15.1383 C   0  0  0  0  0  0  0  0  0  0  0  0
    8.9661   -4.9936   14.5833 C   0  0  0  0  0  0  0  0  0  0  0  0
    8.4332   -6.8493   14.8603 C   0  0  0  0  0  0  0  0  0  0  0  0
    7.1848   -8.0590   15.0372 N   0  0  0  0  0  0  0  0  0  0  0  0
    2.6287  -16.7332   14.0632 H   0  0  0  0  0  0  0  0  0  0  0  0
    3.2682  -15.0972   14.1965 H   0  0  0  0  0  0  0  0  0  0  0  0
    1.8382  -15.5747   15.1423 H   0  0  0  0  0  0  0  0  0  0  0  0
    2.5786  -18.1105   16.4283 H   0  0  0  0  0  0  0  0  0  0  0  0
    4.6299  -18.8020   17.7583 H   0  0  0  0  0  0  0  0  0  0  0  0
    6.8359  -15.1155   15.7961 H   0  0  0  0  0  0  0  0  0  0  0  0
    5.4793  -14.4102   14.9019 H   0  0  0  0  0  0  0  0  0  0  0  0
    6.6902  -12.5261   15.0673 H   0  0  0  0  0  0  0  0  0  0  0  0
    6.8148  -10.8054   17.4785 H   0  0  0  0  0  0  0  0  0  0  0  0
    5.6645  -10.3856   16.2280 H   0  0  0  0  0  0  0  0  0  0  0  0
   10.3368  -10.0215   16.1624 H   0  0  0  0  0  0  0  0  0  0  0  0
   12.0881   -7.0744   16.1053 H   0  0  0  0  0  0  0  0  0  0  0  0
   12.2015   -4.5470   16.1998 H   0  0  0  0  0  0  0  0  0  0  0  0
   10.2643   -3.0784   15.0057 H   0  0  0  0  0  0  0  0  0  0  0  0
   10.0817   -5.0584   14.1091 H   0  0  0  0  0  0  0  0  0  0  0  0
  1  2  1  0
  2  3  1  0
  3  4  1  0
  4  5  2  0
  5  6  1  0
  6  7  1  0
  7  8  1  0
  8  9  2  0
  8 10  1  0
 10 11  1  0
 11 12  1  0
 12 13  2  0
 13 14  1  0
 14 15  1  0
 15 16  2  0
 16 17  1  0
 17 18  2  0
 18 19  1  0
 19 20  2  0
  6  2  2  0
 20 12  1  0
 19 14  1  0
  1 21  1  0
  1 22  1  0
  1 23  1  0
  3 24  1  0
  4 25  1  0
  7 26  1  0
  7 27  1  0
 10 28  1  0
 11 29  1  0
 11 30  1  0
 13 31  1  0
 15 32  1  0
 16 33  1  0
 17 34  1  0
 18 35  1  0
M  END
>  <Energy>  (670) 
678.51446298925839

>  <compound_id>  (670) 
46101

>  <target_id>  (670) 
1

>  <reference_id>  (670) 
8

>  <inspiration_ids>  (670) 
[101, 8]

>  <energy_score>  (670) 
612.3885220699624

>  <distance_score>  (670) 
15.332489775749249

>  <path>  (670) 
/opt/xchem-fragalysis-2/maxwin/BulkDock/SCRATCH/511024/C46101-P8/C46101-P8.minimised.mol

>  <scratch_subdir>  (670) 
/opt/xchem-fragalysis-2/maxwin/BulkDock/SCRATCH/511024/C46101-P8

>  <fragmenstein_runtime>  (670) 
15.029335260391235

>  <fragmenstein_outcome>  (670) 
too moved

>  <fragmenstein_mode>  (670) 
expansion

>  <fragmenstein_error>  (670) 


$$$$
C46102-P101
     RDKit          3D

 47 51  0  0  0  0  0  0  0  0999 V2000
    5.2427   -9.5684   16.3085 C   0  0  0  0  0  0  0  0  0  0  0  0
    3.8082   -9.6178   16.0889 C   0  0  0  0  0  0  0  0  0  0  0  0
    3.1293  -10.7546   16.3503 C   0  0  0  0  0  0  0  0  0  0  0  0
    3.7958  -11.8905   16.8392 N   0  0  0  0  0  0  0  0  0  0  0  0
    3.3350  -13.1900   17.2055 C   0  0  0  0  0  0  0  0  0  0  0  0
    1.9252  -13.7508   17.1263 C   0  0  0  0  0  0  0  0  0  0  0  0
    1.1638  -13.2823   16.1449 N   0  0  0  0  0  0  0  0  0  0  0  0
    1.0722  -14.3601   15.3037 C   0  0  0  0  0  0  0  0  0  0  0  0
    1.5006  -15.5057   15.9464 C   0  0  0  0  0  0  0  0  0  0  0  0
    1.4739  -15.1328   17.3178 N   0  0  0  0  0  0  0  0  0  0  0  0
    0.2926  -15.8576   18.1117 C   0  0  0  0  0  0  0  0  0  0  0  0
   -1.1793  -15.5861   17.7659 C   0  0  0  0  0  0  0  0  0  0  0  0
   -2.0819  -16.3999   18.7356 C   0  0  0  0  0  0  0  0  0  0  0  0
   -2.0026  -15.9398   20.0894 O   0  0  0  0  0  0  0  0  0  0  0  0
   -0.7437  -16.4317   21.0571 C   0  0  0  0  0  0  0  0  0  0  0  0
   -1.0189  -15.1096   22.6151 C   0  0  0  0  0  0  0  0  0  0  0  0
   -1.9909  -15.9109   24.3140 C   0  0  0  0  0  0  0  0  0  0  0  0
   -2.0333  -17.9165   24.7644 O   0  0  0  0  0  0  0  0  0  0  0  0
   -1.5117  -19.1535   23.1127 C   0  0  0  0  0  0  0  0  0  0  0  0
   -1.1962  -18.0768   21.4238 C   0  0  0  0  0  0  0  0  0  0  0  0
    0.3288  -16.3609   19.8058 C   0  0  0  0  0  0  0  0  0  0  0  0
    4.5087  -13.8213   17.5945 C   0  0  0  0  0  0  0  0  0  0  0  0
    5.6267  -13.0062   17.5060 N   0  0  0  0  0  0  0  0  0  0  0  0
    5.1864  -11.8552   17.0564 C   0  0  0  0  0  0  0  0  0  0  0  0
    5.8993  -10.6464   16.7732 C   0  0  0  0  0  0  0  0  0  0  0  0
    5.7672   -8.6465   16.0789 H   0  0  0  0  0  0  0  0  0  0  0  0
    3.3043   -8.7334   15.7136 H   0  0  0  0  0  0  0  0  0  0  0  0
    2.0598  -10.8467   16.2058 H   0  0  0  0  0  0  0  0  0  0  0  0
    0.7027  -14.2614   14.2914 H   0  0  0  0  0  0  0  0  0  0  0  0
    1.5062  -16.5442   15.6452 H   0  0  0  0  0  0  0  0  0  0  0  0
    0.4546  -16.8471   17.6397 H   0  0  0  0  0  0  0  0  0  0  0  0
   -1.3866  -15.8969   16.7352 H   0  0  0  0  0  0  0  0  0  0  0  0
   -1.4139  -14.5212   17.8224 H   0  0  0  0  0  0  0  0  0  0  0  0
   -3.1213  -16.2495   18.4245 H   0  0  0  0  0  0  0  0  0  0  0  0
   -1.8867  -17.4717   18.6654 H   0  0  0  0  0  0  0  0  0  0  0  0
   -1.7762  -14.6653   21.9733 H   0  0  0  0  0  0  0  0  0  0  0  0
   -0.2790  -14.3197   22.8167 H   0  0  0  0  0  0  0  0  0  0  0  0
   -3.0667  -15.7588   24.0935 H   0  0  0  0  0  0  0  0  0  0  0  0
   -2.0966  -15.2145   25.1616 H   0  0  0  0  0  0  0  0  0  0  0  0
   -2.0985  -20.1217   23.1029 H   0  0  0  0  0  0  0  0  0  0  0  0
   -0.4752  -19.5213   23.3766 H   0  0  0  0  0  0  0  0  0  0  0  0
   -1.5111  -18.5818   20.5441 H   0  0  0  0  0  0  0  0  0  0  0  0
   -2.1922  -17.7013   21.1406 H   0  0  0  0  0  0  0  0  0  0  0  0
    1.1730  -15.9460   20.3197 H   0  0  0  0  0  0  0  0  0  0  0  0
    0.5953  -17.2942   19.4533 H   0  0  0  0  0  0  0  0  0  0  0  0
    4.6116  -14.8412   17.9387 H   0  0  0  0  0  0  0  0  0  0  0  0
    6.9705  -10.6340   16.9359 H   0  0  0  0  0  0  0  0  0  0  0  0
  1  2  1  0
  2  3  2  0
  3  4  1  0
  4  5  1  0
  5  6  1  0
  6  7  2  0
  7  8  1  0
  8  9  2  0
  9 10  1  0
 10 11  1  0
 11 12  1  0
 12 13  1  0
 13 14  1  0
 14 15  1  0
 15 16  1  0
 16 17  1  0
 17 18  1  0
 18 19  1  0
 19 20  1  0
 15 21  1  0
  5 22  2  0
 22 23  1  0
 23 24  2  0
 24 25  1  0
 25  1  2  0
 24  4  1  0
 10  6  1  0
 21 11  1  0
 20 15  1  0
  1 26  1  0
  2 27  1  0
  3 28  1  0
  8 29  1  0
  9 30  1  0
 11 31  1  0
 12 32  1  0
 12 33  1  0
 13 34  1  0
 13 35  1  0
 16 36  1  0
 16 37  1  0
 17 38  1  0
 17 39  1  0
 19 40  1  0
 19 41  1  0
 20 42  1  0
 20 43  1  0
 21 44  1  0
 21 45  1  0
 22 46  1  0
 25 47  1  0
M  END
>  <Energy>  (671) 
729.18217096266267

>  <compound_id>  (671) 
46102

>  <target_id>  (671) 
1

>  <reference_id>  (671) 
101

>  <inspiration_ids>  (671) 
[101, 8]

>  <energy_score>  (671) 
633.8478246693967

>  <distance_score>  (671) 
15.213148297557058

>  <path>  (671) 
/opt/xchem-fragalysis-2/maxwin/BulkDock/SCRATCH/511024/C46102-P101/C46102-P101.minimised.mol

>  <scratch_subdir>  (671) 
/opt/xchem-fragalysis-2/maxwin/BulkDock/SCRATCH/511024/C46102-P101

>  <fragmenstein_runtime>  (671) 
47.57424306869507

>  <fragmenstein_outcome>  (671) 
too moved

>  <fragmenstein_mode>  (671) 
expansion

>  <fragmenstein_error>  (671) 


$$$$
C46102-P8
     RDKit          3D

 47 51  0  0  0  0  0  0  0  0999 V2000
    6.5782   -7.6291   19.4011 C   0  0  0  0  0  0  0  0  0  0  0  0
    6.3971   -8.7527   18.4815 C   0  0  0  0  0  0  0  0  0  0  0  0
    6.6218  -10.0059   18.9228 C   0  0  0  0  0  0  0  0  0  0  0  0
    6.9702  -10.2082   20.2722 N   0  0  0  0  0  0  0  0  0  0  0  0
    6.6074  -11.2548   21.1813 C   0  0  0  0  0  0  0  0  0  0  0  0
    5.8448  -12.5634   20.7890 C   0  0  0  0  0  0  0  0  0  0  0  0
    6.4808  -13.0522   19.7410 N   0  0  0  0  0  0  0  0  0  0  0  0
    5.5606  -13.3774   18.8575 C   0  0  0  0  0  0  0  0  0  0  0  0
    4.3090  -13.3205   19.4045 C   0  0  0  0  0  0  0  0  0  0  0  0
    4.2932  -13.3192   21.1315 N   0  0  0  0  0  0  0  0  0  0  0  0
    3.3692  -14.6428   22.4153 C   0  0  0  0  0  0  0  0  0  0  0  0
    2.8132  -13.6974   23.5343 C   0  0  0  0  0  0  0  0  0  0  0  0
    1.2432  -14.5110   23.5698 C   0  0  0  0  0  0  0  0  0  0  0  0
    1.9974  -15.9342   23.7327 O   0  0  0  0  0  0  0  0  0  0  0  0
    1.9182  -17.8560   24.5484 C   0  0  0  0  0  0  0  0  0  0  0  0
    0.1245  -18.4365   25.7197 C   0  0  0  0  0  0  0  0  0  0  0  0
   -1.7916  -18.6971   25.8887 C   0  0  0  0  0  0  0  0  0  0  0  0
   -2.4610  -20.1425   24.9301 O   0  0  0  0  0  0  0  0  0  0  0  0
   -1.2925  -20.2321   23.4821 C   0  0  0  0  0  0  0  0  0  0  0  0
    0.4952  -19.3793   23.7964 C   0  0  0  0  0  0  0  0  0  0  0  0
    3.4028  -16.5347   23.5186 C   0  0  0  0  0  0  0  0  0  0  0  0
    7.2612  -10.8317   22.3417 C   0  0  0  0  0  0  0  0  0  0  0  0
    7.7713   -9.5503   22.2598 N   0  0  0  0  0  0  0  0  0  0  0  0
    7.4283   -9.1356   21.0654 C   0  0  0  0  0  0  0  0  0  0  0  0
    7.2082   -7.8043   20.5833 C   0  0  0  0  0  0  0  0  0  0  0  0
    6.2675   -6.6446   19.0646 H   0  0  0  0  0  0  0  0  0  0  0  0
    6.0392   -8.5592   17.4753 H   0  0  0  0  0  0  0  0  0  0  0  0
    6.4063  -10.8778   18.3227 H   0  0  0  0  0  0  0  0  0  0  0  0
    5.8069  -13.7224   17.8631 H   0  0  0  0  0  0  0  0  0  0  0  0
    3.5153  -13.9025   18.9387 H   0  0  0  0  0  0  0  0  0  0  0  0
    2.8081  -14.6475   21.4702 H   0  0  0  0  0  0  0  0  0  0  0  0
    3.4226  -13.8563   24.4255 H   0  0  0  0  0  0  0  0  0  0  0  0
    2.7881  -12.6172   23.3589 H   0  0  0  0  0  0  0  0  0  0  0  0
    0.5852  -14.2226   24.3907 H   0  0  0  0  0  0  0  0  0  0  0  0
    0.4747  -14.5025   22.6868 H   0  0  0  0  0  0  0  0  0  0  0  0
    0.0981  -17.8990   26.7416 H   0  0  0  0  0  0  0  0  0  0  0  0
    0.4014  -19.2659   26.2103 H   0  0  0  0  0  0  0  0  0  0  0  0
   -2.2844  -17.7800   25.6174 H   0  0  0  0  0  0  0  0  0  0  0  0
   -1.9930  -19.0289   26.9160 H   0  0  0  0  0  0  0  0  0  0  0  0
   -1.7829  -19.8877   22.6207 H   0  0  0  0  0  0  0  0  0  0  0  0
   -1.1617  -21.3237   23.3850 H   0  0  0  0  0  0  0  0  0  0  0  0
    0.0339  -18.9357   22.8228 H   0  0  0  0  0  0  0  0  0  0  0  0
    1.0257  -20.1422   23.1698 H   0  0  0  0  0  0  0  0  0  0  0  0
    3.8948  -17.3048   23.0876 H   0  0  0  0  0  0  0  0  0  0  0  0
    4.2981  -16.2563   24.1630 H   0  0  0  0  0  0  0  0  0  0  0  0
    7.3715  -11.3644   23.2757 H   0  0  0  0  0  0  0  0  0  0  0  0
    7.4032   -6.9767   21.2555 H   0  0  0  0  0  0  0  0  0  0  0  0
  1  2  1  0
  2  3  2  0
  3  4  1  0
  4  5  1  0
  5  6  1  0
  6  7  2  0
  7  8  1  0
  8  9  2  0
  9 10  1  0
 10 11  1  0
 11 12  1  0
 12 13  1  0
 13 14  1  0
 14 15  1  0
 15 16  1  0
 16 17  1  0
 17 18  1  0
 18 19  1  0
 19 20  1  0
 15 21  1  0
  5 22  2  0
 22 23  1  0
 23 24  2  0
 24 25  1  0
 25  1  2  0
 24  4  1  0
 10  6  1  0
 21 11  1  0
 20 15  1  0
  1 26  1  0
  2 27  1  0
  3 28  1  0
  8 29  1  0
  9 30  1  0
 11 31  1  0
 12 32  1  0
 12 33  1  0
 13 34  1  0
 13 35  1  0
 16 36  1  0
 16 37  1  0
 17 38  1  0
 17 39  1  0
 19 40  1  0
 19 41  1  0
 20 42  1  0
 20 43  1  0
 21 44  1  0
 21 45  1  0
 22 46  1  0
 25 47  1  0
M  END
>  <Energy>  (672) 
1625.4993008517556

>  <compound_id>  (672) 
46102

>  <target_id>  (672) 
1

>  <reference_id>  (672) 
8

>  <inspiration_ids>  (672) 
[101, 8]

>  <energy_score>  (672) 
1530.1649545584903

>  <distance_score>  (672) 
13.462209148692219

>  <path>  (672) 
/opt/xchem-fragalysis-2/maxwin/BulkDock/SCRATCH/511024/C46102-P8/C46102-P8.minimised.mol

>  <scratch_subdir>  (672) 
/opt/xchem-fragalysis-2/maxwin/BulkDock/SCRATCH/511024/C46102-P8

>  <fragmenstein_runtime>  (672) 
35.67783832550049

>  <fragmenstein_outcome>  (672) 
too moved

>  <fragmenstein_mode>  (672) 
expansion

>  <fragmenstein_error>  (672) 


$$$$
C29851-P101
     RDKit          3D

 41 43  0  0  0  0  0  0  0  0999 V2000
   -0.0546  -14.5080   22.4859 C   0  0  0  0  0  0  0  0  0  0  0  0
    0.7111  -14.1275   23.9510 C   0  0  0  0  0  0  0  0  0  0  0  0
   -1.1084  -14.7554   24.4715 C   0  0  0  0  0  0  0  0  0  0  0  0
   -2.6683  -14.9225   25.4402 C   0  0  0  0  0  0  0  0  0  0  0  0
   -3.6383  -14.0299   25.8921 C   0  0  0  0  0  0  0  0  0  0  0  0
   -4.7712  -14.6625   26.3592 N   0  0  0  0  0  0  0  0  0  0  0  0
   -4.5577  -15.9403   26.1944 C   0  0  0  0  0  0  0  0  0  0  0  0
   -3.3533  -16.1482   25.5936 N   0  0  0  0  0  0  0  0  0  0  0  0
    2.7168  -13.9205   23.2668 C   0  0  0  0  0  0  0  0  0  0  0  0
    3.3646  -14.9590   23.3350 O   0  0  0  0  0  0  0  0  0  0  0  0
    3.1589  -12.2794   22.5043 N   0  0  0  0  0  0  0  0  0  0  0  0
    4.7824  -11.6816   21.3696 C   0  0  0  0  0  0  0  0  0  0  0  0
    5.6086  -10.6581   19.6385 C   0  0  0  0  0  0  0  0  0  0  0  0
    5.4377   -8.4023   19.1987 C   0  0  0  0  0  0  0  0  0  0  0  0
    7.0292   -7.4264   19.2247 C   0  0  0  0  0  0  0  0  0  0  0  0
    8.4000   -8.8574   18.9201 N   0  0  0  0  0  0  0  0  0  0  0  0
    8.7843  -10.2238   18.5509 C   0  0  0  0  0  0  0  0  0  0  0  0
    9.9543  -10.7408   19.0372 C   0  0  0  0  0  0  0  0  0  0  0  0
   10.7624   -9.8921   19.9800 C   0  0  0  0  0  0  0  0  0  0  0  0
   10.2570   -8.7096   20.4798 C   0  0  0  0  0  0  0  0  0  0  0  0
    9.0370   -8.1185   19.8434 C   0  0  0  0  0  0  0  0  0  0  0  0
    7.1826   -7.8461   19.9863 N   0  0  0  0  0  0  0  0  0  0  0  0
    0.4593  -15.2647   21.9059 H   0  0  0  0  0  0  0  0  0  0  0  0
   -0.2642  -13.6260   22.0398 H   0  0  0  0  0  0  0  0  0  0  0  0
   -1.0457  -14.8492   22.3849 H   0  0  0  0  0  0  0  0  0  0  0  0
    0.1631  -13.3817   23.4484 H   0  0  0  0  0  0  0  0  0  0  0  0
   -1.2890  -13.7964   24.9824 H   0  0  0  0  0  0  0  0  0  0  0  0
   -1.6478  -15.3099   23.7886 H   0  0  0  0  0  0  0  0  0  0  0  0
   -3.5959  -12.9509   25.8767 H   0  0  0  0  0  0  0  0  0  0  0  0
   -5.2288  -16.7426   26.4746 H   0  0  0  0  0  0  0  0  0  0  0  0
   -3.0007  -17.0616   25.3606 H   0  0  0  0  0  0  0  0  0  0  0  0
    2.4382  -11.6181   22.7071 H   0  0  0  0  0  0  0  0  0  0  0  0
    5.2808  -11.0841   22.1391 H   0  0  0  0  0  0  0  0  0  0  0  0
    5.0451  -12.6585   20.9301 H   0  0  0  0  0  0  0  0  0  0  0  0
    6.6959  -10.8262   19.8541 H   0  0  0  0  0  0  0  0  0  0  0  0
    5.6536  -11.4912   18.9290 H   0  0  0  0  0  0  0  0  0  0  0  0
    7.0557   -6.5359   18.5257 H   0  0  0  0  0  0  0  0  0  0  0  0
    8.2786  -10.6172   17.6934 H   0  0  0  0  0  0  0  0  0  0  0  0
   10.3981  -11.6643   18.6852 H   0  0  0  0  0  0  0  0  0  0  0  0
   11.6614  -10.3500   20.3906 H   0  0  0  0  0  0  0  0  0  0  0  0
   10.7533   -8.1504   21.2669 H   0  0  0  0  0  0  0  0  0  0  0  0
  1  2  1  0
  2  3  1  0
  3  4  1  0
  4  5  2  0
  5  6  1  0
  6  7  2  0
  7  8  1  0
  2  9  1  0
  9 10  2  0
  9 11  1  0
 11 12  1  0
 12 13  1  0
 13 14  1  0
 14 15  2  0
 15 16  1  0
 16 17  1  0
 17 18  2  0
 18 19  1  0
 19 20  2  0
 20 21  1  0
 21 22  2  0
  8  4  1  0
 22 14  1  0
 21 16  1  0
  1 23  1  0
  1 24  1  0
  1 25  1  0
  2 26  1  0
  3 27  1  0
  3 28  1  0
  5 29  1  0
  7 30  1  0
  8 31  1  0
 11 32  1  0
 12 33  1  0
 12 34  1  0
 13 35  1  0
 13 36  1  0
 15 37  1  0
 17 38  1  0
 18 39  1  0
 19 40  1  0
 20 41  1  0
M  END
>  <Energy>  (673) 
1752.5896642881175

>  <compound_id>  (673) 
29851

>  <target_id>  (673) 
1

>  <reference_id>  (673) 
101

>  <inspiration_ids>  (673) 
[101, 8]

>  <energy_score>  (673) 
1710.4499774472858

>  <distance_score>  (673) 
11.926220169986909

>  <path>  (673) 
/opt/xchem-fragalysis-2/maxwin/BulkDock/SCRATCH/511024/C29851-P101/C29851-P101.minimised.mol

>  <scratch_subdir>  (673) 
/opt/xchem-fragalysis-2/maxwin/BulkDock/SCRATCH/511024/C29851-P101

>  <fragmenstein_runtime>  (673) 
26.058452367782593

>  <fragmenstein_outcome>  (673) 
too moved

>  <fragmenstein_mode>  (673) 
expansion

>  <fragmenstein_error>  (673) 


$$$$
C29851-P8
     RDKit          3D

 41 43  0  0  0  0  0  0  0  0999 V2000
   -0.8205  -17.4504   16.2105 C   0  0  0  0  0  0  0  0  0  0  0  0
    0.1719  -17.8391   17.2951 C   0  0  0  0  0  0  0  0  0  0  0  0
   -0.3868  -19.0533   18.2210 C   0  0  0  0  0  0  0  0  0  0  0  0
   -1.7681  -19.0997   18.8644 C   0  0  0  0  0  0  0  0  0  0  0  0
   -2.7332  -20.1002   18.8923 C   0  0  0  0  0  0  0  0  0  0  0  0
   -3.7741  -19.7954   19.7371 N   0  0  0  0  0  0  0  0  0  0  0  0
   -3.4628  -18.6214   20.2311 C   0  0  0  0  0  0  0  0  0  0  0  0
   -2.2558  -18.1719   19.7582 N   0  0  0  0  0  0  0  0  0  0  0  0
    0.5702  -16.5885   18.1192 C   0  0  0  0  0  0  0  0  0  0  0  0
   -0.1650  -16.4474   19.0681 O   0  0  0  0  0  0  0  0  0  0  0  0
    1.8146  -15.8181   17.7127 N   0  0  0  0  0  0  0  0  0  0  0  0
    2.5963  -14.6635   18.4534 C   0  0  0  0  0  0  0  0  0  0  0  0
    3.9973  -13.8446   18.4942 C   0  0  0  0  0  0  0  0  0  0  0  0
    5.1346  -12.9122   19.4246 C   0  0  0  0  0  0  0  0  0  0  0  0
    5.6023  -12.8572   20.6752 C   0  0  0  0  0  0  0  0  0  0  0  0
    6.9606  -12.4403   20.6122 N   0  0  0  0  0  0  0  0  0  0  0  0
    8.4869  -12.9985   20.9201 C   0  0  0  0  0  0  0  0  0  0  0  0
    9.6242  -12.4951   20.3565 C   0  0  0  0  0  0  0  0  0  0  0  0
    9.5579  -11.3706   19.4137 C   0  0  0  0  0  0  0  0  0  0  0  0
    8.3699  -10.7413   19.1646 C   0  0  0  0  0  0  0  0  0  0  0  0
    6.8869  -11.3492   19.6995 C   0  0  0  0  0  0  0  0  0  0  0  0
    5.8182  -11.6852   18.9678 N   0  0  0  0  0  0  0  0  0  0  0  0
   -1.0841  -18.3159   15.5947 H   0  0  0  0  0  0  0  0  0  0  0  0
   -0.3967  -16.6821   15.5548 H   0  0  0  0  0  0  0  0  0  0  0  0
   -1.7407  -17.0404   16.6400 H   0  0  0  0  0  0  0  0  0  0  0  0
    1.0904  -18.2114   16.8240 H   0  0  0  0  0  0  0  0  0  0  0  0
    0.3383  -19.2146   19.0261 H   0  0  0  0  0  0  0  0  0  0  0  0
   -0.3189  -19.9488   17.5862 H   0  0  0  0  0  0  0  0  0  0  0  0
   -2.7116  -21.0426   18.3600 H   0  0  0  0  0  0  0  0  0  0  0  0
   -4.0540  -18.0433   20.9270 H   0  0  0  0  0  0  0  0  0  0  0  0
   -1.7894  -17.3065   20.0188 H   0  0  0  0  0  0  0  0  0  0  0  0
    2.1350  -16.1527   16.8155 H   0  0  0  0  0  0  0  0  0  0  0  0
    2.4427  -14.8690   19.4952 H   0  0  0  0  0  0  0  0  0  0  0  0
    1.8869  -13.9399   18.0804 H   0  0  0  0  0  0  0  0  0  0  0  0
    4.6104  -14.6076   18.0584 H   0  0  0  0  0  0  0  0  0  0  0  0
    3.6733  -12.9220   18.0131 H   0  0  0  0  0  0  0  0  0  0  0  0
    4.9211  -12.2232   21.2129 H   0  0  0  0  0  0  0  0  0  0  0  0
    8.6478  -13.8857   21.4792 H   0  0  0  0  0  0  0  0  0  0  0  0
   10.5941  -12.9482   20.5401 H   0  0  0  0  0  0  0  0  0  0  0  0
   10.4686  -11.1028   18.8880 H   0  0  0  0  0  0  0  0  0  0  0  0
    8.3899  -10.1271   18.2819 H   0  0  0  0  0  0  0  0  0  0  0  0
  1  2  1  0
  2  3  1  0
  3  4  1  0
  4  5  2  0
  5  6  1  0
  6  7  2  0
  7  8  1  0
  2  9  1  0
  9 10  2  0
  9 11  1  0
 11 12  1  0
 12 13  1  0
 13 14  1  0
 14 15  2  0
 15 16  1  0
 16 17  1  0
 17 18  2  0
 18 19  1  0
 19 20  2  0
 20 21  1  0
 21 22  2  0
  8  4  1  0
 22 14  1  0
 21 16  1  0
  1 23  1  0
  1 24  1  0
  1 25  1  0
  2 26  1  0
  3 27  1  0
  3 28  1  0
  5 29  1  0
  7 30  1  0
  8 31  1  0
 11 32  1  0
 12 33  1  0
 12 34  1  0
 13 35  1  0
 13 36  1  0
 15 37  1  0
 17 38  1  0
 18 39  1  0
 19 40  1  0
 20 41  1  0
M  END
>  <Energy>  (674) 
263.81727951105142

>  <compound_id>  (674) 
29851

>  <target_id>  (674) 
1

>  <reference_id>  (674) 
8

>  <inspiration_ids>  (674) 
[101, 8]

>  <energy_score>  (674) 
221.67759267018243

>  <distance_score>  (674) 
14.250488522610816

>  <path>  (674) 
/opt/xchem-fragalysis-2/maxwin/BulkDock/SCRATCH/511024/C29851-P8/C29851-P8.minimised.mol

>  <scratch_subdir>  (674) 
/opt/xchem-fragalysis-2/maxwin/BulkDock/SCRATCH/511024/C29851-P8

>  <fragmenstein_runtime>  (674) 
26.675865173339844

>  <fragmenstein_outcome>  (674) 
too moved

>  <fragmenstein_mode>  (674) 
expansion

>  <fragmenstein_error>  (674) 


$$$$
C46104-P101
     RDKit          3D

 42 44  0  0  0  0  0  0  0  0999 V2000
    4.2764   -6.1594   17.2218 C   0  0  0  0  0  0  0  0  0  0  0  0
    2.7191   -6.2875   17.2975 C   0  0  0  0  0  0  0  0  0  0  0  0
    2.2859   -7.6979   16.8902 C   0  0  0  0  0  0  0  0  0  0  0  0
    2.0785   -5.7679   18.5229 N   0  0  0  0  0  0  0  0  0  0  0  0
    2.4739   -4.5256   18.9983 C   0  0  0  0  0  0  0  0  0  0  0  0
    1.6330   -4.2239   20.0275 C   0  0  0  0  0  0  0  0  0  0  0  0
    0.6948   -5.2030   20.1839 N   0  0  0  0  0  0  0  0  0  0  0  0
    0.9483   -6.1686   19.3077 C   0  0  0  0  0  0  0  0  0  0  0  0
    0.0916   -7.5175   19.2685 C   0  0  0  0  0  0  0  0  0  0  0  0
   -1.0552   -7.7375   20.3415 N   0  0  0  0  0  0  0  0  0  0  0  0
   -1.7783   -9.1476   20.3956 C   0  0  0  0  0  0  0  0  0  0  0  0
   -3.1521   -9.3102   21.2022 C   0  0  0  0  0  0  0  0  0  0  0  0
   -3.9861  -10.6138   21.1566 C   0  0  0  0  0  0  0  0  0  0  0  0
   -5.0985  -10.9208   21.9406 C   0  0  0  0  0  0  0  0  0  0  0  0
   -5.5843  -12.1323   21.5008 N   0  0  0  0  0  0  0  0  0  0  0  0
   -6.6762  -12.8731   21.9430 C   0  0  0  0  0  0  0  0  0  0  0  0
   -6.9474  -14.0493   21.3513 C   0  0  0  0  0  0  0  0  0  0  0  0
   -6.0906  -14.5076   20.2663 C   0  0  0  0  0  0  0  0  0  0  0  0
   -5.0387  -13.7796   19.8417 C   0  0  0  0  0  0  0  0  0  0  0  0
   -4.7461  -12.5348   20.4669 C   0  0  0  0  0  0  0  0  0  0  0  0
   -3.7711  -11.6596   20.2728 N   0  0  0  0  0  0  0  0  0  0  0  0
    4.6204   -6.4363   16.2187 H   0  0  0  0  0  0  0  0  0  0  0  0
    4.6240   -5.1405   17.4064 H   0  0  0  0  0  0  0  0  0  0  0  0
    4.7733   -6.8244   17.9281 H   0  0  0  0  0  0  0  0  0  0  0  0
    2.3289   -5.6160   16.5179 H   0  0  0  0  0  0  0  0  0  0  0  0
    1.2108   -7.7365   16.6926 H   0  0  0  0  0  0  0  0  0  0  0  0
    2.7864   -8.0038   15.9648 H   0  0  0  0  0  0  0  0  0  0  0  0
    2.5183   -8.4439   17.6531 H   0  0  0  0  0  0  0  0  0  0  0  0
    3.2933   -3.9649   18.5770 H   0  0  0  0  0  0  0  0  0  0  0  0
    1.6369   -3.3462   20.6591 H   0  0  0  0  0  0  0  0  0  0  0  0
   -0.3944   -7.5737   18.2897 H   0  0  0  0  0  0  0  0  0  0  0  0
    0.8000   -8.3303   19.3741 H   0  0  0  0  0  0  0  0  0  0  0  0
   -1.7474   -7.0157   20.1497 H   0  0  0  0  0  0  0  0  0  0  0  0
   -1.9639   -9.4478   19.3596 H   0  0  0  0  0  0  0  0  0  0  0  0
   -1.0748   -9.8262   20.8825 H   0  0  0  0  0  0  0  0  0  0  0  0
   -2.9449   -9.0768   22.2538 H   0  0  0  0  0  0  0  0  0  0  0  0
   -3.8190   -8.5161   20.8397 H   0  0  0  0  0  0  0  0  0  0  0  0
   -5.5912  -10.3685   22.7277 H   0  0  0  0  0  0  0  0  0  0  0  0
   -7.2670  -12.4630   22.7515 H   0  0  0  0  0  0  0  0  0  0  0  0
   -7.7874  -14.6669   21.6505 H   0  0  0  0  0  0  0  0  0  0  0  0
   -6.3270  -15.4602   19.7999 H   0  0  0  0  0  0  0  0  0  0  0  0
   -4.4026  -14.1178   19.0315 H   0  0  0  0  0  0  0  0  0  0  0  0
  1  2  1  0
  2  3  1  0
  2  4  1  0
  4  5  1  0
  5  6  2  0
  6  7  1  0
  7  8  2  0
  8  9  1  0
  9 10  1  0
 10 11  1  0
 11 12  1  0
 12 13  1  0
 13 14  2  0
 14 15  1  0
 15 16  1  0
 16 17  2  0
 17 18  1  0
 18 19  2  0
 19 20  1  0
 20 21  2  0
  8  4  1  0
 21 13  1  0
 20 15  1  0
  1 22  1  0
  1 23  1  0
  1 24  1  0
  2 25  1  0
  3 26  1  0
  3 27  1  0
  3 28  1  0
  5 29  1  0
  6 30  1  0
  9 31  1  0
  9 32  1  0
 10 33  1  0
 11 34  1  0
 11 35  1  0
 12 36  1  0
 12 37  1  0
 14 38  1  0
 16 39  1  0
 17 40  1  0
 18 41  1  0
 19 42  1  0
M  END
>  <Energy>  (675) 
86.165265623288789

>  <compound_id>  (675) 
46104

>  <target_id>  (675) 
1

>  <reference_id>  (675) 
101

>  <inspiration_ids>  (675) 
[101, 8]

>  <energy_score>  (675) 
1.458228242053167

>  <distance_score>  (675) 
15.415192951461496

>  <path>  (675) 
/opt/xchem-fragalysis-2/maxwin/BulkDock/SCRATCH/511024/C46104-P101/C46104-P101.minimised.mol

>  <scratch_subdir>  (675) 
/opt/xchem-fragalysis-2/maxwin/BulkDock/SCRATCH/511024/C46104-P101

>  <fragmenstein_runtime>  (675) 
17.196842908859253

>  <fragmenstein_outcome>  (675) 
too moved

>  <fragmenstein_mode>  (675) 
expansion

>  <fragmenstein_error>  (675) 


$$$$
C46104-P8
     RDKit          3D

 42 44  0  0  0  0  0  0  0  0999 V2000
    5.5740  -14.3653   18.1959 C   0  0  0  0  0  0  0  0  0  0  0  0
    5.0474  -13.0466   18.8171 C   0  0  0  0  0  0  0  0  0  0  0  0
    5.9335  -12.0041   18.0051 C   0  0  0  0  0  0  0  0  0  0  0  0
    5.0785  -13.0184   20.3396 N   0  0  0  0  0  0  0  0  0  0  0  0
    6.3857  -12.5804   20.5588 C   0  0  0  0  0  0  0  0  0  0  0  0
    6.2124  -11.4821   21.2718 C   0  0  0  0  0  0  0  0  0  0  0  0
    4.7757  -11.3453   21.7548 N   0  0  0  0  0  0  0  0  0  0  0  0
    4.0108  -12.5293   21.5784 C   0  0  0  0  0  0  0  0  0  0  0  0
    2.8839  -13.0169   23.1764 C   0  0  0  0  0  0  0  0  0  0  0  0
    1.2081  -13.9077   23.7740 N   0  0  0  0  0  0  0  0  0  0  0  0
   -0.6277  -14.3949   24.0504 C   0  0  0  0  0  0  0  0  0  0  0  0
   -2.3380  -15.0851   24.8802 C   0  0  0  0  0  0  0  0  0  0  0  0
   -3.0596  -16.4357   25.3855 C   0  0  0  0  0  0  0  0  0  0  0  0
   -3.4720  -16.7870   26.6669 C   0  0  0  0  0  0  0  0  0  0  0  0
   -3.7314  -18.1397   26.6152 N   0  0  0  0  0  0  0  0  0  0  0  0
   -3.8900  -19.0531   27.6530 C   0  0  0  0  0  0  0  0  0  0  0  0
   -3.9037  -20.3657   27.3639 C   0  0  0  0  0  0  0  0  0  0  0  0
   -3.7854  -20.7868   25.9757 C   0  0  0  0  0  0  0  0  0  0  0  0
   -3.6909  -19.8900   24.9739 C   0  0  0  0  0  0  0  0  0  0  0  0
   -3.6477  -18.5016   25.2781 C   0  0  0  0  0  0  0  0  0  0  0  0
   -3.3869  -17.4527   24.5218 N   0  0  0  0  0  0  0  0  0  0  0  0
    5.7272  -14.2693   17.1135 H   0  0  0  0  0  0  0  0  0  0  0  0
    4.8595  -15.1859   18.2949 H   0  0  0  0  0  0  0  0  0  0  0  0
    6.5233  -14.6905   18.6315 H   0  0  0  0  0  0  0  0  0  0  0  0
    4.0223  -12.8945   18.5794 H   0  0  0  0  0  0  0  0  0  0  0  0
    6.0704  -11.0279   18.4698 H   0  0  0  0  0  0  0  0  0  0  0  0
    6.9513  -12.3820   17.8364 H   0  0  0  0  0  0  0  0  0  0  0  0
    5.4923  -11.8479   17.0133 H   0  0  0  0  0  0  0  0  0  0  0  0
    7.2607  -12.9985   20.0777 H   0  0  0  0  0  0  0  0  0  0  0  0
    7.0406  -11.0039   21.7660 H   0  0  0  0  0  0  0  0  0  0  0  0
    3.4603  -13.4683   23.9657 H   0  0  0  0  0  0  0  0  0  0  0  0
    2.5523  -12.0262   23.4591 H   0  0  0  0  0  0  0  0  0  0  0  0
    1.1864  -13.2735   24.6159 H   0  0  0  0  0  0  0  0  0  0  0  0
   -0.7939  -14.4174   22.9827 H   0  0  0  0  0  0  0  0  0  0  0  0
   -0.9061  -13.6864   24.7945 H   0  0  0  0  0  0  0  0  0  0  0  0
   -2.5760  -14.3555   25.6551 H   0  0  0  0  0  0  0  0  0  0  0  0
   -3.1704  -14.9151   24.1612 H   0  0  0  0  0  0  0  0  0  0  0  0
   -3.4343  -16.2562   27.6071 H   0  0  0  0  0  0  0  0  0  0  0  0
   -3.9411  -18.6683   28.6640 H   0  0  0  0  0  0  0  0  0  0  0  0
   -3.9704  -21.1213   28.1374 H   0  0  0  0  0  0  0  0  0  0  0  0
   -3.7849  -21.8520   25.7624 H   0  0  0  0  0  0  0  0  0  0  0  0
   -3.5920  -20.1963   23.9379 H   0  0  0  0  0  0  0  0  0  0  0  0
  1  2  1  0
  2  3  1  0
  2  4  1  0
  4  5  1  0
  5  6  2  0
  6  7  1  0
  7  8  2  0
  8  9  1  0
  9 10  1  0
 10 11  1  0
 11 12  1  0
 12 13  1  0
 13 14  2  0
 14 15  1  0
 15 16  1  0
 16 17  2  0
 17 18  1  0
 18 19  2  0
 19 20  1  0
 20 21  2  0
  8  4  1  0
 21 13  1  0
 20 15  1  0
  1 22  1  0
  1 23  1  0
  1 24  1  0
  2 25  1  0
  3 26  1  0
  3 27  1  0
  3 28  1  0
  5 29  1  0
  6 30  1  0
  9 31  1  0
  9 32  1  0
 10 33  1  0
 11 34  1  0
 11 35  1  0
 12 36  1  0
 12 37  1  0
 14 38  1  0
 16 39  1  0
 17 40  1  0
 18 41  1  0
 19 42  1  0
M  END
>  <Energy>  (676) 
648.54146877477922

>  <compound_id>  (676) 
46104

>  <target_id>  (676) 
1

>  <reference_id>  (676) 
8

>  <inspiration_ids>  (676) 
[101, 8]

>  <energy_score>  (676) 
563.8344313935446

>  <distance_score>  (676) 
14.617572165585791

>  <path>  (676) 
/opt/xchem-fragalysis-2/maxwin/BulkDock/SCRATCH/511024/C46104-P8/C46104-P8.minimised.mol

>  <scratch_subdir>  (676) 
/opt/xchem-fragalysis-2/maxwin/BulkDock/SCRATCH/511024/C46104-P8

>  <fragmenstein_runtime>  (676) 
23.967623472213745

>  <fragmenstein_outcome>  (676) 
too moved

>  <fragmenstein_mode>  (676) 
expansion

>  <fragmenstein_error>  (676) 


$$$$
C46105-P101
     RDKit          3D

 44 46  0  0  0  0  0  0  0  0999 V2000
    5.6063   -4.8521   20.8126 C   0  0  0  0  0  0  0  0  0  0  0  0
    5.3620   -5.6603   19.5911 C   0  0  0  0  0  0  0  0  0  0  0  0
    6.1981   -5.6907   18.5757 N   0  0  0  0  0  0  0  0  0  0  0  0
    5.6137   -6.4561   17.6132 C   0  0  0  0  0  0  0  0  0  0  0  0
    4.4282   -6.9681   18.0728 C   0  0  0  0  0  0  0  0  0  0  0  0
    4.2626   -6.4754   19.3432 N   0  0  0  0  0  0  0  0  0  0  0  0
    3.2189   -6.8806   20.2906 C   0  0  0  0  0  0  0  0  0  0  0  0
    1.8160   -7.3844   19.7434 C   0  0  0  0  0  0  0  0  0  0  0  0
    0.9218   -8.2565   20.7596 C   0  0  0  0  0  0  0  0  0  0  0  0
   -0.5646   -8.7650   20.3565 C   0  0  0  0  0  0  0  0  0  0  0  0
   -1.1454   -8.1337   19.5133 O   0  0  0  0  0  0  0  0  0  0  0  0
   -1.0187   -9.9102   21.1918 N   0  0  0  0  0  0  0  0  0  0  0  0
   -2.4107  -10.5870   21.3173 C   0  0  0  0  0  0  0  0  0  0  0  0
   -2.5558  -12.1849   21.3994 C   0  0  0  0  0  0  0  0  0  0  0  0
   -3.7328  -12.8827   22.0950 C   0  0  0  0  0  0  0  0  0  0  0  0
   -4.8813  -13.4292   21.5412 C   0  0  0  0  0  0  0  0  0  0  0  0
   -5.4593  -14.2191   22.5112 N   0  0  0  0  0  0  0  0  0  0  0  0
   -6.6022  -15.0119   22.4527 C   0  0  0  0  0  0  0  0  0  0  0  0
   -6.9613  -15.7202   23.5375 C   0  0  0  0  0  0  0  0  0  0  0  0
   -6.1428  -15.6329   24.7389 C   0  0  0  0  0  0  0  0  0  0  0  0
   -5.0369  -14.8632   24.7844 C   0  0  0  0  0  0  0  0  0  0  0  0
   -4.6513  -14.1144   23.6365 C   0  0  0  0  0  0  0  0  0  0  0  0
   -3.6238  -13.3132   23.4139 N   0  0  0  0  0  0  0  0  0  0  0  0
    6.6468   -4.5165   20.8549 H   0  0  0  0  0  0  0  0  0  0  0  0
    5.4087   -5.4395   21.7145 H   0  0  0  0  0  0  0  0  0  0  0  0
    4.9588   -3.9704   20.8193 H   0  0  0  0  0  0  0  0  0  0  0  0
    6.0777   -6.6158   16.6484 H   0  0  0  0  0  0  0  0  0  0  0  0
    3.7194   -7.6349   17.6040 H   0  0  0  0  0  0  0  0  0  0  0  0
    3.0356   -6.0225   20.9471 H   0  0  0  0  0  0  0  0  0  0  0  0
    3.6732   -7.6717   20.8968 H   0  0  0  0  0  0  0  0  0  0  0  0
    1.2308   -6.5079   19.4388 H   0  0  0  0  0  0  0  0  0  0  0  0
    1.9398   -7.9847   18.8377 H   0  0  0  0  0  0  0  0  0  0  0  0
    0.7832   -7.6553   21.6671 H   0  0  0  0  0  0  0  0  0  0  0  0
    1.4984   -9.1263   21.0387 H   0  0  0  0  0  0  0  0  0  0  0  0
   -0.2871  -10.1448   21.8633 H   0  0  0  0  0  0  0  0  0  0  0  0
   -2.8384  -10.1558   22.2295 H   0  0  0  0  0  0  0  0  0  0  0  0
   -3.0095  -10.2167   20.4780 H   0  0  0  0  0  0  0  0  0  0  0  0
   -1.6811  -12.6004   21.8934 H   0  0  0  0  0  0  0  0  0  0  0  0
   -2.5185  -12.5511   20.3663 H   0  0  0  0  0  0  0  0  0  0  0  0
   -5.2850  -13.3867   20.5396 H   0  0  0  0  0  0  0  0  0  0  0  0
   -7.1525  -15.0301   21.5207 H   0  0  0  0  0  0  0  0  0  0  0  0
   -7.8354  -16.3620   23.5401 H   0  0  0  0  0  0  0  0  0  0  0  0
   -6.4459  -16.2162   25.6034 H   0  0  0  0  0  0  0  0  0  0  0  0
   -4.4211  -14.8033   25.6742 H   0  0  0  0  0  0  0  0  0  0  0  0
  1  2  1  0
  2  3  2  0
  3  4  1  0
  4  5  2  0
  5  6  1  0
  6  7  1  0
  7  8  1  0
  8  9  1  0
  9 10  1  0
 10 11  2  0
 10 12  1  0
 12 13  1  0
 13 14  1  0
 14 15  1  0
 15 16  2  0
 16 17  1  0
 17 18  1  0
 18 19  2  0
 19 20  1  0
 20 21  2  0
 21 22  1  0
 22 23  2  0
  6  2  1  0
 23 15  1  0
 22 17  1  0
  1 24  1  0
  1 25  1  0
  1 26  1  0
  4 27  1  0
  5 28  1  0
  7 29  1  0
  7 30  1  0
  8 31  1  0
  8 32  1  0
  9 33  1  0
  9 34  1  0
 12 35  1  0
 13 36  1  0
 13 37  1  0
 14 38  1  0
 14 39  1  0
 16 40  1  0
 18 41  1  0
 19 42  1  0
 20 43  1  0
 21 44  1  0
M  END
>  <Energy>  (677) 
48.998787883325257

>  <compound_id>  (677) 
46105

>  <target_id>  (677) 
1

>  <reference_id>  (677) 
101

>  <inspiration_ids>  (677) 
[101, 8]

>  <energy_score>  (677) 
13.857929024573991

>  <distance_score>  (677) 
14.261489148847462

>  <path>  (677) 
/opt/xchem-fragalysis-2/maxwin/BulkDock/SCRATCH/511024/C46105-P101/C46105-P101.minimised.mol

>  <scratch_subdir>  (677) 
/opt/xchem-fragalysis-2/maxwin/BulkDock/SCRATCH/511024/C46105-P101

>  <fragmenstein_runtime>  (677) 
31.843695163726807

>  <fragmenstein_outcome>  (677) 
too moved

>  <fragmenstein_mode>  (677) 
expansion

>  <fragmenstein_error>  (677) 


$$$$
C46105-P8
     RDKit          3D

 44 46  0  0  0  0  0  0  0  0999 V2000
    5.9364   -6.6745   19.1769 C   0  0  0  0  0  0  0  0  0  0  0  0
    6.8685   -6.5926   20.3253 C   0  0  0  0  0  0  0  0  0  0  0  0
    7.7560   -5.6247   20.4619 N   0  0  0  0  0  0  0  0  0  0  0  0
    8.4893   -5.9408   21.5688 C   0  0  0  0  0  0  0  0  0  0  0  0
    8.0301   -7.1100   22.1280 C   0  0  0  0  0  0  0  0  0  0  0  0
    6.9776   -7.5257   21.3431 N   0  0  0  0  0  0  0  0  0  0  0  0
    6.3488   -8.8478   21.4346 C   0  0  0  0  0  0  0  0  0  0  0  0
    5.1091   -9.0764   22.4337 C   0  0  0  0  0  0  0  0  0  0  0  0
    4.6760  -10.7161   22.6785 C   0  0  0  0  0  0  0  0  0  0  0  0
    3.4143  -12.2912   22.7567 C   0  0  0  0  0  0  0  0  0  0  0  0
    3.5906  -12.9753   21.7880 O   0  0  0  0  0  0  0  0  0  0  0  0
    2.1612  -12.6086   23.8910 N   0  0  0  0  0  0  0  0  0  0  0  0
    0.8281  -13.9943   23.9736 C   0  0  0  0  0  0  0  0  0  0  0  0
   -0.8787  -13.9884   23.2421 C   0  0  0  0  0  0  0  0  0  0  0  0
   -2.1333  -14.5651   23.9465 C   0  0  0  0  0  0  0  0  0  0  0  0
   -2.8421  -14.2083   25.0818 C   0  0  0  0  0  0  0  0  0  0  0  0
   -3.9573  -15.0230   25.1310 N   0  0  0  0  0  0  0  0  0  0  0  0
   -4.9955  -15.0580   26.0589 C   0  0  0  0  0  0  0  0  0  0  0  0
   -6.0251  -15.8977   25.8514 C   0  0  0  0  0  0  0  0  0  0  0  0
   -6.0194  -16.7328   24.6591 C   0  0  0  0  0  0  0  0  0  0  0  0
   -4.9969  -16.7153   23.7850 C   0  0  0  0  0  0  0  0  0  0  0  0
   -3.9111  -15.8306   24.0051 C   0  0  0  0  0  0  0  0  0  0  0  0
   -2.8341  -15.5815   23.2939 N   0  0  0  0  0  0  0  0  0  0  0  0
    6.3247   -7.3616   18.4192 H   0  0  0  0  0  0  0  0  0  0  0  0
    5.8006   -5.6923   18.7144 H   0  0  0  0  0  0  0  0  0  0  0  0
    4.9513   -7.0287   19.4965 H   0  0  0  0  0  0  0  0  0  0  0  0
    9.3152   -5.3206   21.8960 H   0  0  0  0  0  0  0  0  0  0  0  0
    8.3689   -7.6772   22.9833 H   0  0  0  0  0  0  0  0  0  0  0  0
    7.1485   -9.5375   21.7347 H   0  0  0  0  0  0  0  0  0  0  0  0
    6.0670   -9.1315   20.4159 H   0  0  0  0  0  0  0  0  0  0  0  0
    5.4636   -8.6881   23.3963 H   0  0  0  0  0  0  0  0  0  0  0  0
    4.2445   -8.4751   22.1288 H   0  0  0  0  0  0  0  0  0  0  0  0
    5.5484  -10.9085   23.3542 H   0  0  0  0  0  0  0  0  0  0  0  0
    5.1701  -11.0615   21.7444 H   0  0  0  0  0  0  0  0  0  0  0  0
    2.2516  -11.9705   24.6526 H   0  0  0  0  0  0  0  0  0  0  0  0
    1.4387  -14.6972   23.4258 H   0  0  0  0  0  0  0  0  0  0  0  0
    0.7466  -13.9377   25.0493 H   0  0  0  0  0  0  0  0  0  0  0  0
   -0.8162  -14.6378   22.3794 H   0  0  0  0  0  0  0  0  0  0  0  0
   -1.1396  -13.0604   22.7428 H   0  0  0  0  0  0  0  0  0  0  0  0
   -2.6632  -13.4635   25.8416 H   0  0  0  0  0  0  0  0  0  0  0  0
   -4.9301  -14.3960   26.9120 H   0  0  0  0  0  0  0  0  0  0  0  0
   -6.8605  -15.9674   26.5397 H   0  0  0  0  0  0  0  0  0  0  0  0
   -6.8682  -17.3754   24.4707 H   0  0  0  0  0  0  0  0  0  0  0  0
   -4.9895  -17.3388   22.8977 H   0  0  0  0  0  0  0  0  0  0  0  0
  1  2  1  0
  2  3  2  0
  3  4  1  0
  4  5  2  0
  5  6  1  0
  6  7  1  0
  7  8  1  0
  8  9  1  0
  9 10  1  0
 10 11  2  0
 10 12  1  0
 12 13  1  0
 13 14  1  0
 14 15  1  0
 15 16  2  0
 16 17  1  0
 17 18  1  0
 18 19  2  0
 19 20  1  0
 20 21  2  0
 21 22  1  0
 22 23  2  0
  6  2  1  0
 23 15  1  0
 22 17  1  0
  1 24  1  0
  1 25  1  0
  1 26  1  0
  4 27  1  0
  5 28  1  0
  7 29  1  0
  7 30  1  0
  8 31  1  0
  8 32  1  0
  9 33  1  0
  9 34  1  0
 12 35  1  0
 13 36  1  0
 13 37  1  0
 14 38  1  0
 14 39  1  0
 16 40  1  0
 18 41  1  0
 19 42  1  0
 20 43  1  0
 21 44  1  0
M  END
>  <Energy>  (678) 
273.26960859663592

>  <compound_id>  (678) 
46105

>  <target_id>  (678) 
1

>  <reference_id>  (678) 
8

>  <inspiration_ids>  (678) 
[101, 8]

>  <energy_score>  (678) 
238.12874973788468

>  <distance_score>  (678) 
13.148766086695721

>  <path>  (678) 
/opt/xchem-fragalysis-2/maxwin/BulkDock/SCRATCH/511024/C46105-P8/C46105-P8.minimised.mol

>  <scratch_subdir>  (678) 
/opt/xchem-fragalysis-2/maxwin/BulkDock/SCRATCH/511024/C46105-P8

>  <fragmenstein_runtime>  (678) 
21.47602939605713

>  <fragmenstein_outcome>  (678) 
too moved

>  <fragmenstein_mode>  (678) 
expansion

>  <fragmenstein_error>  (678) 


$$$$
C46107-P101
     RDKit          3D

 38 40  0  0  0  0  0  0  0  0999 V2000
   -2.0450  -16.0609   20.1842 O   0  0  0  0  0  0  0  0  0  0  0  0
   -1.3257  -16.8325   19.6185 C   0  0  0  0  0  0  0  0  0  0  0  0
    0.6194  -16.3932   19.6404 C   0  0  0  0  0  0  0  0  0  0  0  0
    2.0537  -15.3536   18.5556 C   0  0  0  0  0  0  0  0  0  0  0  0
    2.8442  -15.5739   17.3526 C   0  0  0  0  0  0  0  0  0  0  0  0
    4.2489  -15.1212   17.4142 N   0  0  0  0  0  0  0  0  0  0  0  0
    5.3323  -15.1710   16.5092 C   0  0  0  0  0  0  0  0  0  0  0  0
    6.3813  -14.3386   16.6765 C   0  0  0  0  0  0  0  0  0  0  0  0
    6.3704  -13.4094   17.7950 C   0  0  0  0  0  0  0  0  0  0  0  0
    5.3262  -13.3748   18.6463 C   0  0  0  0  0  0  0  0  0  0  0  0
    4.1993  -14.2518   18.4475 C   0  0  0  0  0  0  0  0  0  0  0  0
    2.9563  -14.4148   19.0156 N   0  0  0  0  0  0  0  0  0  0  0  0
   -1.6483  -18.0475   18.8515 N   0  0  0  0  0  0  0  0  0  0  0  0
   -2.9677  -18.7646   18.6205 C   0  0  0  0  0  0  0  0  0  0  0  0
   -4.3605  -18.1701   18.7312 C   0  0  0  0  0  0  0  0  0  0  0  0
   -5.4500  -19.0304   19.2285 N   0  0  0  0  0  0  0  0  0  0  0  0
   -5.6237  -20.3852   19.0888 C   0  0  0  0  0  0  0  0  0  0  0  0
   -6.6931  -20.8253   19.7276 N   0  0  0  0  0  0  0  0  0  0  0  0
   -7.2438  -19.7019   20.3219 C   0  0  0  0  0  0  0  0  0  0  0  0
   -8.4221  -19.7523   21.1799 C   0  0  0  0  0  0  0  0  0  0  0  0
   -8.9447  -18.7798   21.7129 O   0  0  0  0  0  0  0  0  0  0  0  0
   -8.9065  -21.0098   21.3344 O   0  0  0  0  0  0  0  0  0  0  0  0
   -6.5053  -18.5865   19.9926 C   0  0  0  0  0  0  0  0  0  0  0  0
   -0.1326  -15.6589   19.4827 H   0  0  0  0  0  0  0  0  0  0  0  0
    0.8100  -16.2380   20.6769 H   0  0  0  0  0  0  0  0  0  0  0  0
    2.6032  -16.0195   16.3836 H   0  0  0  0  0  0  0  0  0  0  0  0
    5.2311  -15.8354   15.6631 H   0  0  0  0  0  0  0  0  0  0  0  0
    7.2123  -14.3143   15.9806 H   0  0  0  0  0  0  0  0  0  0  0  0
    7.2249  -12.7563   17.9339 H   0  0  0  0  0  0  0  0  0  0  0  0
    5.3145  -12.7220   19.5076 H   0  0  0  0  0  0  0  0  0  0  0  0
   -0.7956  -18.4161   18.4372 H   0  0  0  0  0  0  0  0  0  0  0  0
   -2.9234  -19.6193   19.3021 H   0  0  0  0  0  0  0  0  0  0  0  0
   -2.8663  -19.2122   17.6233 H   0  0  0  0  0  0  0  0  0  0  0  0
   -4.6996  -17.7305   17.7887 H   0  0  0  0  0  0  0  0  0  0  0  0
   -4.2520  -17.4033   19.4642 H   0  0  0  0  0  0  0  0  0  0  0  0
   -4.9422  -21.0050   18.5204 H   0  0  0  0  0  0  0  0  0  0  0  0
   -8.3336  -21.6330   20.8290 H   0  0  0  0  0  0  0  0  0  0  0  0
   -6.6211  -17.5548   20.2875 H   0  0  0  0  0  0  0  0  0  0  0  0
  1  2  2  0
  2  3  1  0
  3  4  1  0
  4  5  2  0
  5  6  1  0
  6  7  1  0
  7  8  2  0
  8  9  1  0
  9 10  2  0
 10 11  1  0
 11 12  2  0
  2 13  1  0
 13 14  1  0
 14 15  1  0
 15 16  1  0
 16 17  1  0
 17 18  2  0
 18 19  1  0
 19 20  1  0
 20 21  2  0
 20 22  1  0
 19 23  2  0
 12  4  1  0
 23 16  1  0
 11  6  1  0
  3 24  1  0
  3 25  1  0
  5 26  1  0
  7 27  1  0
  8 28  1  0
  9 29  1  0
 10 30  1  0
 13 31  1  0
 14 32  1  0
 14 33  1  0
 15 34  1  0
 15 35  1  0
 17 36  1  0
 22 37  1  0
 23 38  1  0
M  END
>  <Energy>  (679) 
324.69825770443094

>  <compound_id>  (679) 
46107

>  <target_id>  (679) 
1

>  <reference_id>  (679) 
101

>  <inspiration_ids>  (679) 
[101, 8]

>  <energy_score>  (679) 
239.89202173051922

>  <distance_score>  (679) 
15.138992443283767

>  <path>  (679) 
/opt/xchem-fragalysis-2/maxwin/BulkDock/SCRATCH/511024/C46107-P101/C46107-P101.minimised.mol

>  <scratch_subdir>  (679) 
/opt/xchem-fragalysis-2/maxwin/BulkDock/SCRATCH/511024/C46107-P101

>  <fragmenstein_runtime>  (679) 
31.57798457145691

>  <fragmenstein_outcome>  (679) 
too moved

>  <fragmenstein_mode>  (679) 
expansion

>  <fragmenstein_error>  (679) 


$$$$
C46107-P8
     RDKit          3D

 38 40  0  0  0  0  0  0  0  0999 V2000
    3.4022  -14.8713   23.4197 O   0  0  0  0  0  0  0  0  0  0  0  0
    2.9054  -13.7775   23.3814 C   0  0  0  0  0  0  0  0  0  0  0  0
    3.7045  -12.3453   22.4911 C   0  0  0  0  0  0  0  0  0  0  0  0
    5.0732  -11.9410   21.1944 C   0  0  0  0  0  0  0  0  0  0  0  0
    5.6572  -12.5346   20.0751 C   0  0  0  0  0  0  0  0  0  0  0  0
    6.8242  -11.8284   19.7840 N   0  0  0  0  0  0  0  0  0  0  0  0
    7.7585  -12.0139   18.7618 C   0  0  0  0  0  0  0  0  0  0  0  0
    8.8995  -11.3016   18.7703 C   0  0  0  0  0  0  0  0  0  0  0  0
    9.1327  -10.3606   19.8549 C   0  0  0  0  0  0  0  0  0  0  0  0
    8.1973  -10.1190   20.7871 C   0  0  0  0  0  0  0  0  0  0  0  0
    6.9978  -10.8815   20.7825 C   0  0  0  0  0  0  0  0  0  0  0  0
    5.9876  -10.8960   21.6209 N   0  0  0  0  0  0  0  0  0  0  0  0
    1.5709  -13.3048   23.8593 N   0  0  0  0  0  0  0  0  0  0  0  0
    0.1382  -14.2308   24.5370 C   0  0  0  0  0  0  0  0  0  0  0  0
   -1.7419  -14.4008   25.4795 C   0  0  0  0  0  0  0  0  0  0  0  0
   -2.0550  -15.3875   27.1147 N   0  0  0  0  0  0  0  0  0  0  0  0
   -2.0429  -15.3036   28.5159 C   0  0  0  0  0  0  0  0  0  0  0  0
   -2.1015  -16.4080   29.2350 N   0  0  0  0  0  0  0  0  0  0  0  0
   -2.2287  -17.4372   28.3825 C   0  0  0  0  0  0  0  0  0  0  0  0
   -2.2303  -18.8393   28.7691 C   0  0  0  0  0  0  0  0  0  0  0  0
   -2.4414  -19.2885   29.8879 O   0  0  0  0  0  0  0  0  0  0  0  0
   -1.8883  -19.7011   27.7721 O   0  0  0  0  0  0  0  0  0  0  0  0
   -2.3235  -16.9111   27.1266 C   0  0  0  0  0  0  0  0  0  0  0  0
    3.2701  -11.4470   22.8366 H   0  0  0  0  0  0  0  0  0  0  0  0
    3.3605  -12.8474   21.5863 H   0  0  0  0  0  0  0  0  0  0  0  0
    5.3722  -13.3695   19.4578 H   0  0  0  0  0  0  0  0  0  0  0  0
    7.5232  -12.7544   18.0079 H   0  0  0  0  0  0  0  0  0  0  0  0
    9.6542  -11.4286   18.0012 H   0  0  0  0  0  0  0  0  0  0  0  0
   10.0902   -9.8604   19.9164 H   0  0  0  0  0  0  0  0  0  0  0  0
    8.3627   -9.4141   21.5918 H   0  0  0  0  0  0  0  0  0  0  0  0
    1.5123  -12.2655   23.7448 H   0  0  0  0  0  0  0  0  0  0  0  0
    0.7098  -13.7346   25.4550 H   0  0  0  0  0  0  0  0  0  0  0  0
   -0.3433  -14.0354   23.5828 H   0  0  0  0  0  0  0  0  0  0  0  0
   -2.3089  -15.1503   24.8961 H   0  0  0  0  0  0  0  0  0  0  0  0
   -2.2636  -13.4727   25.6775 H   0  0  0  0  0  0  0  0  0  0  0  0
   -2.1150  -14.4109   29.0890 H   0  0  0  0  0  0  0  0  0  0  0  0
   -2.0312  -20.5606   28.2219 H   0  0  0  0  0  0  0  0  0  0  0  0
   -2.3817  -17.4083   26.1760 H   0  0  0  0  0  0  0  0  0  0  0  0
  1  2  2  0
  2  3  1  0
  3  4  1  0
  4  5  2  0
  5  6  1  0
  6  7  1  0
  7  8  2  0
  8  9  1  0
  9 10  2  0
 10 11  1  0
 11 12  2  0
  2 13  1  0
 13 14  1  0
 14 15  1  0
 15 16  1  0
 16 17  1  0
 17 18  2  0
 18 19  1  0
 19 20  1  0
 20 21  2  0
 20 22  1  0
 19 23  2  0
 12  4  1  0
 23 16  1  0
 11  6  1  0
  3 24  1  0
  3 25  1  0
  5 26  1  0
  7 27  1  0
  8 28  1  0
  9 29  1  0
 10 30  1  0
 13 31  1  0
 14 32  1  0
 14 33  1  0
 15 34  1  0
 15 35  1  0
 17 36  1  0
 22 37  1  0
 23 38  1  0
M  END
>  <Energy>  (680) 
480.16524484133487

>  <compound_id>  (680) 
46107

>  <target_id>  (680) 
1

>  <reference_id>  (680) 
8

>  <inspiration_ids>  (680) 
[101, 8]

>  <energy_score>  (680) 
395.35900886742394

>  <distance_score>  (680) 
13.126406858772006

>  <path>  (680) 
/opt/xchem-fragalysis-2/maxwin/BulkDock/SCRATCH/511024/C46107-P8/C46107-P8.minimised.mol

>  <scratch_subdir>  (680) 
/opt/xchem-fragalysis-2/maxwin/BulkDock/SCRATCH/511024/C46107-P8

>  <fragmenstein_runtime>  (680) 
32.50002956390381

>  <fragmenstein_outcome>  (680) 
too moved

>  <fragmenstein_mode>  (680) 
expansion

>  <fragmenstein_error>  (680) 


$$$$
C46110-P101
     RDKit          3D

 35 37  0  0  0  0  0  0  0  0999 V2000
   -2.9715  -17.0216   27.5098 O   0  0  0  0  0  0  0  0  0  0  0  0
   -2.5712  -17.0589   26.3412 C   0  0  0  0  0  0  0  0  0  0  0  0
   -2.0378  -18.2404   25.8987 O   0  0  0  0  0  0  0  0  0  0  0  0
   -2.4803  -15.6454   25.1193 C   0  0  0  0  0  0  0  0  0  0  0  0
   -1.4226  -15.2440   24.2348 C   0  0  0  0  0  0  0  0  0  0  0  0
   -0.1799  -14.2174   24.5560 N   0  0  0  0  0  0  0  0  0  0  0  0
    1.1221  -13.7258   25.9452 C   0  0  0  0  0  0  0  0  0  0  0  0
    2.7747  -14.1951   27.0468 C   0  0  0  0  0  0  0  0  0  0  0  0
    4.3099  -14.3391   26.4279 N   0  0  0  0  0  0  0  0  0  0  0  0
    5.6165  -13.8071   26.9254 C   0  0  0  0  0  0  0  0  0  0  0  0
    5.8827  -13.2186   27.9365 O   0  0  0  0  0  0  0  0  0  0  0  0
    6.7658  -13.9229   25.9840 C   0  0  0  0  0  0  0  0  0  0  0  0
    7.2914  -14.9870   25.2736 C   0  0  0  0  0  0  0  0  0  0  0  0
    8.2471  -14.6040   24.3548 N   0  0  0  0  0  0  0  0  0  0  0  0
    8.3723  -13.3049   24.4899 C   0  0  0  0  0  0  0  0  0  0  0  0
    9.1412  -12.3619   23.7309 C   0  0  0  0  0  0  0  0  0  0  0  0
    9.1015  -11.0514   24.0359 C   0  0  0  0  0  0  0  0  0  0  0  0
    8.3047  -10.5766   25.1529 C   0  0  0  0  0  0  0  0  0  0  0  0
    7.5617  -11.4554   25.8569 C   0  0  0  0  0  0  0  0  0  0  0  0
    7.5574  -12.8217   25.5195 N   0  0  0  0  0  0  0  0  0  0  0  0
   -1.6279  -13.6933   25.3590 C   0  0  0  0  0  0  0  0  0  0  0  0
   -2.3449  -14.5749   25.9366 N   0  0  0  0  0  0  0  0  0  0  0  0
   -2.6477  -18.8123   26.4343 H   0  0  0  0  0  0  0  0  0  0  0  0
   -1.3675  -15.0134   23.1913 H   0  0  0  0  0  0  0  0  0  0  0  0
    1.5815  -13.0041   25.2773 H   0  0  0  0  0  0  0  0  0  0  0  0
    0.4051  -13.4621   26.6468 H   0  0  0  0  0  0  0  0  0  0  0  0
    3.0284  -13.4979   27.8496 H   0  0  0  0  0  0  0  0  0  0  0  0
    2.6907  -15.0212   27.8086 H   0  0  0  0  0  0  0  0  0  0  0  0
    4.4352  -14.7090   25.4954 H   0  0  0  0  0  0  0  0  0  0  0  0
    6.9911  -16.0249   25.3475 H   0  0  0  0  0  0  0  0  0  0  0  0
    9.7407  -12.7352   22.9079 H   0  0  0  0  0  0  0  0  0  0  0  0
    9.6773  -10.3291   23.4656 H   0  0  0  0  0  0  0  0  0  0  0  0
    8.3301   -9.5214   25.4032 H   0  0  0  0  0  0  0  0  0  0  0  0
    6.9507  -11.1615   26.7012 H   0  0  0  0  0  0  0  0  0  0  0  0
   -1.9120  -12.6711   25.5012 H   0  0  0  0  0  0  0  0  0  0  0  0
  1  2  2  0
  2  3  1  0
  2  4  1  0
  4  5  2  0
  5  6  1  0
  6  7  1  0
  7  8  1  0
  8  9  1  0
  9 10  1  0
 10 11  2  0
 10 12  1  0
 12 13  2  0
 13 14  1  0
 14 15  2  0
 15 16  1  0
 16 17  2  0
 17 18  1  0
 18 19  2  0
 19 20  1  0
  6 21  1  0
 21 22  2  0
 22  4  1  0
 20 12  1  0
 20 15  1  0
  3 23  1  0
  5 24  1  0
  7 25  1  0
  7 26  1  0
  8 27  1  0
  8 28  1  0
  9 29  1  0
 13 30  1  0
 16 31  1  0
 17 32  1  0
 18 33  1  0
 19 34  1  0
 21 35  1  0
M  END
>  <Energy>  (681) 
456.67291639878977

>  <compound_id>  (681) 
46110

>  <target_id>  (681) 
1

>  <reference_id>  (681) 
101

>  <inspiration_ids>  (681) 
[101, 8]

>  <energy_score>  (681) 
401.44573583290116

>  <distance_score>  (681) 
15.1855426872115

>  <path>  (681) 
/opt/xchem-fragalysis-2/maxwin/BulkDock/SCRATCH/511024/C46110-P101/C46110-P101.minimised.mol

>  <scratch_subdir>  (681) 
/opt/xchem-fragalysis-2/maxwin/BulkDock/SCRATCH/511024/C46110-P101

>  <fragmenstein_runtime>  (681) 
28.43812084197998

>  <fragmenstein_outcome>  (681) 
too moved

>  <fragmenstein_mode>  (681) 
expansion

>  <fragmenstein_error>  (681) 


$$$$
C46110-P8
     RDKit          3D

 35 37  0  0  0  0  0  0  0  0999 V2000
   -2.4474  -19.3230   29.9245 O   0  0  0  0  0  0  0  0  0  0  0  0
   -2.2289  -18.8620   28.8120 C   0  0  0  0  0  0  0  0  0  0  0  0
   -1.8810  -19.7131   27.8075 O   0  0  0  0  0  0  0  0  0  0  0  0
   -2.2290  -17.4559   28.4389 C   0  0  0  0  0  0  0  0  0  0  0  0
   -2.3061  -16.9217   27.1838 C   0  0  0  0  0  0  0  0  0  0  0  0
   -2.0570  -15.4251   27.1929 N   0  0  0  0  0  0  0  0  0  0  0  0
   -1.8189  -14.3967   25.5947 C   0  0  0  0  0  0  0  0  0  0  0  0
   -0.0674  -14.2595   24.4712 C   0  0  0  0  0  0  0  0  0  0  0  0
    1.4537  -13.2903   23.8144 N   0  0  0  0  0  0  0  0  0  0  0  0
    2.8298  -13.7901   23.2385 C   0  0  0  0  0  0  0  0  0  0  0  0
    3.2800  -14.9039   23.1959 O   0  0  0  0  0  0  0  0  0  0  0  0
    3.7776  -12.4607   22.3362 C   0  0  0  0  0  0  0  0  0  0  0  0
    4.1699  -11.1592   22.4755 C   0  0  0  0  0  0  0  0  0  0  0  0
    5.5118  -10.6613   22.2298 N   0  0  0  0  0  0  0  0  0  0  0  0
    5.9313  -11.3964   21.2284 C   0  0  0  0  0  0  0  0  0  0  0  0
    7.1186  -11.2546   20.4579 C   0  0  0  0  0  0  0  0  0  0  0  0
    7.2542  -11.9427   19.3214 C   0  0  0  0  0  0  0  0  0  0  0  0
    6.1756  -12.7853   18.8753 C   0  0  0  0  0  0  0  0  0  0  0  0
    5.0855  -13.0047   19.6440 C   0  0  0  0  0  0  0  0  0  0  0  0
    4.8996  -12.4494   20.9488 N   0  0  0  0  0  0  0  0  0  0  0  0
   -2.0659  -15.3247   28.5885 C   0  0  0  0  0  0  0  0  0  0  0  0
   -2.1323  -16.4310   29.3036 N   0  0  0  0  0  0  0  0  0  0  0  0
   -2.0166  -20.5768   28.2513 H   0  0  0  0  0  0  0  0  0  0  0  0
   -2.3607  -17.4260   26.2363 H   0  0  0  0  0  0  0  0  0  0  0  0
   -2.4151  -15.1371   25.0249 H   0  0  0  0  0  0  0  0  0  0  0  0
   -2.3539  -13.4713   25.7548 H   0  0  0  0  0  0  0  0  0  0  0  0
   -0.8232  -14.7839   23.8464 H   0  0  0  0  0  0  0  0  0  0  0  0
   -0.3724  -13.8263   23.5000 H   0  0  0  0  0  0  0  0  0  0  0  0
    1.4196  -12.2441   23.7725 H   0  0  0  0  0  0  0  0  0  0  0  0
    3.4532  -10.5382   22.9643 H   0  0  0  0  0  0  0  0  0  0  0  0
    7.8811  -10.5655   20.8000 H   0  0  0  0  0  0  0  0  0  0  0  0
    8.1334  -11.8386   18.6951 H   0  0  0  0  0  0  0  0  0  0  0  0
    6.2211  -13.1779   17.8648 H   0  0  0  0  0  0  0  0  0  0  0  0
    4.2615  -13.5026   19.1673 H   0  0  0  0  0  0  0  0  0  0  0  0
   -2.1366  -14.4231   29.1514 H   0  0  0  0  0  0  0  0  0  0  0  0
  1  2  2  0
  2  3  1  0
  2  4  1  0
  4  5  2  0
  5  6  1  0
  6  7  1  0
  7  8  1  0
  8  9  1  0
  9 10  1  0
 10 11  2  0
 10 12  1  0
 12 13  2  0
 13 14  1  0
 14 15  2  0
 15 16  1  0
 16 17  2  0
 17 18  1  0
 18 19  2  0
 19 20  1  0
  6 21  1  0
 21 22  2  0
 22  4  1  0
 20 12  1  0
 20 15  1  0
  3 23  1  0
  5 24  1  0
  7 25  1  0
  7 26  1  0
  8 27  1  0
  8 28  1  0
  9 29  1  0
 13 30  1  0
 16 31  1  0
 17 32  1  0
 18 33  1  0
 19 34  1  0
 21 35  1  0
M  END
>  <Energy>  (682) 
512.4348545462517

>  <compound_id>  (682) 
46110

>  <target_id>  (682) 
1

>  <reference_id>  (682) 
8

>  <inspiration_ids>  (682) 
[101, 8]

>  <energy_score>  (682) 
457.2076739803723

>  <distance_score>  (682) 
13.736391914028767

>  <path>  (682) 
/opt/xchem-fragalysis-2/maxwin/BulkDock/SCRATCH/511024/C46110-P8/C46110-P8.minimised.mol

>  <scratch_subdir>  (682) 
/opt/xchem-fragalysis-2/maxwin/BulkDock/SCRATCH/511024/C46110-P8

>  <fragmenstein_runtime>  (682) 
22.117267608642578

>  <fragmenstein_outcome>  (682) 
too moved

>  <fragmenstein_mode>  (682) 
expansion

>  <fragmenstein_error>  (682) 


$$$$
C46111-P101
     RDKit          3D

 38 40  0  0  0  0  0  0  0  0999 V2000
    0.5571  -13.6959   25.9930 O   0  0  0  0  0  0  0  0  0  0  0  0
    0.4016  -14.1492   24.8317 C   0  0  0  0  0  0  0  0  0  0  0  0
   -1.4859  -15.0910   24.6755 C   0  0  0  0  0  0  0  0  0  0  0  0
   -2.5168  -16.6878   25.2855 N   0  0  0  0  0  0  0  0  0  0  0  0
   -1.4729  -17.9791   25.8523 C   0  0  0  0  0  0  0  0  0  0  0  0
   -2.0435  -18.9132   25.3067 N   0  0  0  0  0  0  0  0  0  0  0  0
   -2.7081  -19.1636   26.2945 C   0  0  0  0  0  0  0  0  0  0  0  0
   -4.3779  -20.0554   25.6804 C   0  0  0  0  0  0  0  0  0  0  0  0
   -4.4783  -20.7133   24.6297 O   0  0  0  0  0  0  0  0  0  0  0  0
   -5.5140  -19.7735   26.5323 O   0  0  0  0  0  0  0  0  0  0  0  0
   -2.6870  -17.4752   26.8101 C   0  0  0  0  0  0  0  0  0  0  0  0
    1.3206  -13.9771   23.6655 N   0  0  0  0  0  0  0  0  0  0  0  0
    2.9537  -13.1203   23.5077 C   0  0  0  0  0  0  0  0  0  0  0  0
    4.0222  -11.8340   22.4973 C   0  0  0  0  0  0  0  0  0  0  0  0
    5.8266  -11.1037   22.8958 C   0  0  0  0  0  0  0  0  0  0  0  0
    6.7871  -11.1180   23.9634 C   0  0  0  0  0  0  0  0  0  0  0  0
    8.0728  -10.8855   23.4127 N   0  0  0  0  0  0  0  0  0  0  0  0
    9.2266  -10.3485   23.9954 C   0  0  0  0  0  0  0  0  0  0  0  0
   10.3260  -10.1514   23.2408 C   0  0  0  0  0  0  0  0  0  0  0  0
   10.3192  -10.5632   21.8444 C   0  0  0  0  0  0  0  0  0  0  0  0
    9.2269  -11.1256   21.2925 C   0  0  0  0  0  0  0  0  0  0  0  0
    8.0321  -11.2481   22.0687 C   0  0  0  0  0  0  0  0  0  0  0  0
    6.7735  -11.4133   21.6987 N   0  0  0  0  0  0  0  0  0  0  0  0
   -2.1400  -14.4920   25.3298 H   0  0  0  0  0  0  0  0  0  0  0  0
   -1.7091  -15.2272   23.6764 H   0  0  0  0  0  0  0  0  0  0  0  0
   -0.6734  -17.9172   26.6177 H   0  0  0  0  0  0  0  0  0  0  0  0
   -5.3164  -19.0268   27.1158 H   0  0  0  0  0  0  0  0  0  0  0  0
   -3.3477  -16.9760   27.4938 H   0  0  0  0  0  0  0  0  0  0  0  0
    0.9569  -14.5395   22.8853 H   0  0  0  0  0  0  0  0  0  0  0  0
    2.4702  -12.3224   24.0527 H   0  0  0  0  0  0  0  0  0  0  0  0
    3.5150  -13.7153   24.2164 H   0  0  0  0  0  0  0  0  0  0  0  0
    3.5052  -10.9227   22.6654 H   0  0  0  0  0  0  0  0  0  0  0  0
    4.1546  -12.2709   21.4978 H   0  0  0  0  0  0  0  0  0  0  0  0
    6.7374  -11.2478   25.0300 H   0  0  0  0  0  0  0  0  0  0  0  0
    9.1687  -10.0753   25.0408 H   0  0  0  0  0  0  0  0  0  0  0  0
   11.2322   -9.7198   23.6534 H   0  0  0  0  0  0  0  0  0  0  0  0
   11.2303  -10.4340   21.2681 H   0  0  0  0  0  0  0  0  0  0  0  0
    9.2063  -11.4401   20.2550 H   0  0  0  0  0  0  0  0  0  0  0  0
  1  2  2  0
  2  3  1  0
  3  4  1  0
  4  5  1  0
  5  6  2  0
  6  7  1  0
  7  8  1  0
  8  9  2  0
  8 10  1  0
  7 11  2  0
  2 12  1  0
 12 13  1  0
 13 14  1  0
 14 15  1  0
 15 16  2  0
 16 17  1  0
 17 18  1  0
 18 19  2  0
 19 20  1  0
 20 21  2  0
 21 22  1  0
 22 23  2  0
 11  4  1  0
 23 15  1  0
 22 17  1  0
  3 24  1  0
  3 25  1  0
  5 26  1  0
 10 27  1  0
 11 28  1  0
 12 29  1  0
 13 30  1  0
 13 31  1  0
 14 32  1  0
 14 33  1  0
 16 34  1  0
 18 35  1  0
 19 36  1  0
 20 37  1  0
 21 38  1  0
M  END
>  <Energy>  (683) 
807.38059094855294

>  <compound_id>  (683) 
46111

>  <target_id>  (683) 
1

>  <reference_id>  (683) 
101

>  <inspiration_ids>  (683) 
[101, 8]

>  <energy_score>  (683) 
727.3725545678185

>  <distance_score>  (683) 
12.747266320020781

>  <path>  (683) 
/opt/xchem-fragalysis-2/maxwin/BulkDock/SCRATCH/511024/C46111-P101/C46111-P101.minimised.mol

>  <scratch_subdir>  (683) 
/opt/xchem-fragalysis-2/maxwin/BulkDock/SCRATCH/511024/C46111-P101

>  <fragmenstein_runtime>  (683) 
24.626556873321533

>  <fragmenstein_outcome>  (683) 
too moved

>  <fragmenstein_mode>  (683) 
expansion

>  <fragmenstein_error>  (683) 


$$$$
C46111-P8
     RDKit          3D

 38 40  0  0  0  0  0  0  0  0999 V2000
   -0.2322  -14.2835   22.7427 O   0  0  0  0  0  0  0  0  0  0  0  0
    0.0636  -14.0180   23.8897 C   0  0  0  0  0  0  0  0  0  0  0  0
   -1.5565  -14.4070   25.1385 C   0  0  0  0  0  0  0  0  0  0  0  0
   -2.1429  -15.3306   26.6920 N   0  0  0  0  0  0  0  0  0  0  0  0
   -2.2991  -15.3071   28.0041 C   0  0  0  0  0  0  0  0  0  0  0  0
   -3.3829  -16.0935   28.3746 N   0  0  0  0  0  0  0  0  0  0  0  0
   -3.6837  -17.1841   27.5945 C   0  0  0  0  0  0  0  0  0  0  0  0
   -5.3081  -18.2130   27.8842 C   0  0  0  0  0  0  0  0  0  0  0  0
   -6.1226  -17.9491   28.8023 O   0  0  0  0  0  0  0  0  0  0  0  0
   -5.8010  -19.2330   27.0864 O   0  0  0  0  0  0  0  0  0  0  0  0
   -2.5840  -17.0078   26.6926 C   0  0  0  0  0  0  0  0  0  0  0  0
    1.7598  -13.1982   24.2705 N   0  0  0  0  0  0  0  0  0  0  0  0
    3.1439  -12.5518   23.1290 C   0  0  0  0  0  0  0  0  0  0  0  0
    4.5721  -11.1979   22.5898 C   0  0  0  0  0  0  0  0  0  0  0  0
    6.4531  -11.0797   23.0442 C   0  0  0  0  0  0  0  0  0  0  0  0
    7.2649  -10.7046   24.1204 C   0  0  0  0  0  0  0  0  0  0  0  0
    8.5315  -10.4401   23.5751 N   0  0  0  0  0  0  0  0  0  0  0  0
    9.5987   -9.7020   24.0983 C   0  0  0  0  0  0  0  0  0  0  0  0
   10.6904   -9.4835   23.3418 C   0  0  0  0  0  0  0  0  0  0  0  0
   10.7571  -10.0679   22.0126 C   0  0  0  0  0  0  0  0  0  0  0  0
    9.7324  -10.7811   21.5073 C   0  0  0  0  0  0  0  0  0  0  0  0
    8.5451  -10.9538   22.2822 C   0  0  0  0  0  0  0  0  0  0  0  0
    7.3341  -11.3483   21.9367 N   0  0  0  0  0  0  0  0  0  0  0  0
   -2.0741  -13.4950   25.4540 H   0  0  0  0  0  0  0  0  0  0  0  0
   -2.1633  -15.1573   24.5871 H   0  0  0  0  0  0  0  0  0  0  0  0
   -1.8419  -14.6923   28.7465 H   0  0  0  0  0  0  0  0  0  0  0  0
   -5.0992  -19.5378   26.4777 H   0  0  0  0  0  0  0  0  0  0  0  0
   -2.2317  -17.5498   25.8314 H   0  0  0  0  0  0  0  0  0  0  0  0
    1.7988  -12.9713   25.2622 H   0  0  0  0  0  0  0  0  0  0  0  0
    2.4125  -11.7937   23.0356 H   0  0  0  0  0  0  0  0  0  0  0  0
    3.2622  -13.1785   22.2673 H   0  0  0  0  0  0  0  0  0  0  0  0
    4.4366  -10.2419   23.0363 H   0  0  0  0  0  0  0  0  0  0  0  0
    4.7392  -11.4056   21.5341 H   0  0  0  0  0  0  0  0  0  0  0  0
    7.0666  -10.3850   25.1288 H   0  0  0  0  0  0  0  0  0  0  0  0
    9.4835   -9.3077   25.0994 H   0  0  0  0  0  0  0  0  0  0  0  0
   11.5348   -8.9074   23.7059 H   0  0  0  0  0  0  0  0  0  0  0  0
   11.6788   -9.9473   21.4562 H   0  0  0  0  0  0  0  0  0  0  0  0
    9.7755  -11.2242   20.5187 H   0  0  0  0  0  0  0  0  0  0  0  0
  1  2  2  0
  2  3  1  0
  3  4  1  0
  4  5  1  0
  5  6  2  0
  6  7  1  0
  7  8  1  0
  8  9  2  0
  8 10  1  0
  7 11  2  0
  2 12  1  0
 12 13  1  0
 13 14  1  0
 14 15  1  0
 15 16  2  0
 16 17  1  0
 17 18  1  0
 18 19  2  0
 19 20  1  0
 20 21  2  0
 21 22  1  0
 22 23  2  0
 11  4  1  0
 23 15  1  0
 22 17  1  0
  3 24  1  0
  3 25  1  0
  5 26  1  0
 10 27  1  0
 11 28  1  0
 12 29  1  0
 13 30  1  0
 13 31  1  0
 14 32  1  0
 14 33  1  0
 16 34  1  0
 18 35  1  0
 19 36  1  0
 20 37  1  0
 21 38  1  0
M  END
>  <Energy>  (684) 
719.54528978872145

>  <compound_id>  (684) 
46111

>  <target_id>  (684) 
1

>  <reference_id>  (684) 
8

>  <inspiration_ids>  (684) 
[101, 8]

>  <energy_score>  (684) 
639.5372534080061

>  <distance_score>  (684) 
12.660745582937592

>  <path>  (684) 
/opt/xchem-fragalysis-2/maxwin/BulkDock/SCRATCH/511024/C46111-P8/C46111-P8.minimised.mol

>  <scratch_subdir>  (684) 
/opt/xchem-fragalysis-2/maxwin/BulkDock/SCRATCH/511024/C46111-P8

>  <fragmenstein_runtime>  (684) 
23.29234480857849

>  <fragmenstein_outcome>  (684) 
too moved

>  <fragmenstein_mode>  (684) 
expansion

>  <fragmenstein_error>  (684) 


$$$$
C46112-P101
     RDKit          3D

 39 41  0  0  0  0  0  0  0  0999 V2000
   -5.0209  -20.1149   17.1552 C   0  0  0  0  0  0  0  0  0  0  0  0
   -4.4422  -18.7800   17.7553 C   0  0  0  0  0  0  0  0  0  0  0  0
   -3.4657  -18.9164   18.9165 C   0  0  0  0  0  0  0  0  0  0  0  0
   -1.9330  -18.2539   18.7356 N   0  0  0  0  0  0  0  0  0  0  0  0
   -0.6553  -18.8584   17.6373 C   0  0  0  0  0  0  0  0  0  0  0  0
    1.0546  -19.1731   16.9419 C   0  0  0  0  0  0  0  0  0  0  0  0
    2.1411  -19.9154   17.4268 C   0  0  0  0  0  0  0  0  0  0  0  0
    3.1514  -20.1089   16.5030 N   0  0  0  0  0  0  0  0  0  0  0  0
    2.8387  -19.3276   15.5118 C   0  0  0  0  0  0  0  0  0  0  0  0
    3.6004  -18.8200   14.4163 C   0  0  0  0  0  0  0  0  0  0  0  0
    2.9562  -18.4954   13.2859 C   0  0  0  0  0  0  0  0  0  0  0  0
    1.5310  -18.7581   13.1882 C   0  0  0  0  0  0  0  0  0  0  0  0
    0.8231  -19.0599   14.3030 C   0  0  0  0  0  0  0  0  0  0  0  0
    1.4693  -19.1314   15.5424 N   0  0  0  0  0  0  0  0  0  0  0  0
   -4.1251  -20.2035   19.7637 C   0  0  0  0  0  0  0  0  0  0  0  0
   -3.5910  -21.2938   20.3161 N   0  0  0  0  0  0  0  0  0  0  0  0
   -4.6146  -22.1733   20.6522 C   0  0  0  0  0  0  0  0  0  0  0  0
   -4.4029  -23.4934   21.2279 C   0  0  0  0  0  0  0  0  0  0  0  0
   -5.2777  -24.2998   21.5222 O   0  0  0  0  0  0  0  0  0  0  0  0
   -3.1034  -23.8199   21.4339 O   0  0  0  0  0  0  0  0  0  0  0  0
   -5.8293  -21.5836   20.3798 C   0  0  0  0  0  0  0  0  0  0  0  0
   -5.5221  -20.3272   19.9207 N   0  0  0  0  0  0  0  0  0  0  0  0
   -6.1074  -20.1646   17.2923 H   0  0  0  0  0  0  0  0  0  0  0  0
   -4.8356  -20.2008   16.0830 H   0  0  0  0  0  0  0  0  0  0  0  0
   -4.6090  -21.0365   17.5704 H   0  0  0  0  0  0  0  0  0  0  0  0
   -5.2701  -18.2303   18.2228 H   0  0  0  0  0  0  0  0  0  0  0  0
   -4.0470  -18.1208   16.9809 H   0  0  0  0  0  0  0  0  0  0  0  0
   -3.7877  -18.0804   19.5377 H   0  0  0  0  0  0  0  0  0  0  0  0
   -1.4999  -18.4731   19.6420 H   0  0  0  0  0  0  0  0  0  0  0  0
   -1.2335  -18.7237   16.7672 H   0  0  0  0  0  0  0  0  0  0  0  0
   -0.0529  -18.1062   18.1287 H   0  0  0  0  0  0  0  0  0  0  0  0
    2.2456  -20.3765   18.4033 H   0  0  0  0  0  0  0  0  0  0  0  0
    4.6744  -18.7323   14.5007 H   0  0  0  0  0  0  0  0  0  0  0  0
    3.4811  -18.1168   12.4158 H   0  0  0  0  0  0  0  0  0  0  0  0
    1.0483  -18.6684   12.2204 H   0  0  0  0  0  0  0  0  0  0  0  0
   -0.2510  -19.1993   14.2918 H   0  0  0  0  0  0  0  0  0  0  0  0
   -3.1608  -24.7111   21.8261 H   0  0  0  0  0  0  0  0  0  0  0  0
   -6.8479  -21.9179   20.5187 H   0  0  0  0  0  0  0  0  0  0  0  0
   -6.1917  -19.6106   19.6848 H   0  0  0  0  0  0  0  0  0  0  0  0
  1  2  1  0
  2  3  1  0
  3  4  1  0
  4  5  1  0
  5  6  1  0
  6  7  2  0
  7  8  1  0
  8  9  2  0
  9 10  1  0
 10 11  2  0
 11 12  1  0
 12 13  2  0
 13 14  1  0
  3 15  1  0
 15 16  2  0
 16 17  1  0
 17 18  1  0
 18 19  2  0
 18 20  1  0
 17 21  2  0
 21 22  1  0
 14  6  1  0
 22 15  1  0
 14  9  1  0
  1 23  1  0
  1 24  1  0
  1 25  1  0
  2 26  1  0
  2 27  1  0
  3 28  1  0
  4 29  1  0
  5 30  1  0
  5 31  1  0
  7 32  1  0
 10 33  1  0
 11 34  1  0
 12 35  1  0
 13 36  1  0
 20 37  1  0
 21 38  1  0
 22 39  1  0
M  END
>  <Energy>  (685) 
270.79111839770547

>  <compound_id>  (685) 
46112

>  <target_id>  (685) 
1

>  <reference_id>  (685) 
101

>  <inspiration_ids>  (685) 
[101, 8]

>  <energy_score>  (685) 
202.62751770181558

>  <distance_score>  (685) 
17.82870932529145

>  <path>  (685) 
/opt/xchem-fragalysis-2/maxwin/BulkDock/SCRATCH/511024/C46112-P101/C46112-P101.minimised.mol

>  <scratch_subdir>  (685) 
/opt/xchem-fragalysis-2/maxwin/BulkDock/SCRATCH/511024/C46112-P101

>  <fragmenstein_runtime>  (685) 
20.51715064048767

>  <fragmenstein_outcome>  (685) 
too moved

>  <fragmenstein_mode>  (685) 
expansion

>  <fragmenstein_error>  (685) 


$$$$
C46112-P8
     RDKit          3D

 39 41  0  0  0  0  0  0  0  0999 V2000
   -2.2442  -10.6442   20.7621 C   0  0  0  0  0  0  0  0  0  0  0  0
   -2.4555  -11.8910   19.8484 C   0  0  0  0  0  0  0  0  0  0  0  0
   -1.6627  -11.9612   18.4433 C   0  0  0  0  0  0  0  0  0  0  0  0
   -0.5768  -13.2152   17.6068 N   0  0  0  0  0  0  0  0  0  0  0  0
    1.1542  -13.7899   16.9834 C   0  0  0  0  0  0  0  0  0  0  0  0
    2.4636  -13.0785   15.9101 C   0  0  0  0  0  0  0  0  0  0  0  0
    2.4195  -12.7035   14.5651 C   0  0  0  0  0  0  0  0  0  0  0  0
    3.4796  -11.9128   14.1905 N   0  0  0  0  0  0  0  0  0  0  0  0
    4.2726  -11.8766   15.2308 C   0  0  0  0  0  0  0  0  0  0  0  0
    5.5255  -11.2059   15.3984 C   0  0  0  0  0  0  0  0  0  0  0  0
    6.2443  -11.3973   16.5185 C   0  0  0  0  0  0  0  0  0  0  0  0
    5.7566  -12.2760   17.5654 C   0  0  0  0  0  0  0  0  0  0  0  0
    4.5515  -12.8698   17.4342 C   0  0  0  0  0  0  0  0  0  0  0  0
    3.7796  -12.6589   16.2866 N   0  0  0  0  0  0  0  0  0  0  0  0
   -2.1932  -10.5753   17.9603 C   0  0  0  0  0  0  0  0  0  0  0  0
   -3.2622  -10.2895   17.2359 N   0  0  0  0  0  0  0  0  0  0  0  0
   -3.3546   -8.8968   17.0836 C   0  0  0  0  0  0  0  0  0  0  0  0
   -4.3754   -8.2013   16.3049 C   0  0  0  0  0  0  0  0  0  0  0  0
   -5.2904   -8.7101   15.6729 O   0  0  0  0  0  0  0  0  0  0  0  0
   -4.2577   -6.8492   16.3128 O   0  0  0  0  0  0  0  0  0  0  0  0
   -2.3754   -8.3255   17.8522 C   0  0  0  0  0  0  0  0  0  0  0  0
   -1.6668   -9.3598   18.3688 N   0  0  0  0  0  0  0  0  0  0  0  0
   -1.2204  -10.5522   21.1250 H   0  0  0  0  0  0  0  0  0  0  0  0
   -2.5593   -9.6974   20.3394 H   0  0  0  0  0  0  0  0  0  0  0  0
   -2.8928  -10.6763   21.6196 H   0  0  0  0  0  0  0  0  0  0  0  0
   -3.5345  -11.9016   19.6703 H   0  0  0  0  0  0  0  0  0  0  0  0
   -2.1164  -12.7180   20.4459 H   0  0  0  0  0  0  0  0  0  0  0  0
   -0.8871  -11.7715   19.0970 H   0  0  0  0  0  0  0  0  0  0  0  0
    0.1112  -12.7837   18.1788 H   0  0  0  0  0  0  0  0  0  0  0  0
    1.7177  -14.1482   17.8475 H   0  0  0  0  0  0  0  0  0  0  0  0
    1.0167  -14.5836   16.3011 H   0  0  0  0  0  0  0  0  0  0  0  0
    1.6164  -12.8960   13.8626 H   0  0  0  0  0  0  0  0  0  0  0  0
    5.8849  -10.5736   14.5939 H   0  0  0  0  0  0  0  0  0  0  0  0
    7.2146  -10.9272   16.6450 H   0  0  0  0  0  0  0  0  0  0  0  0
    6.3781  -12.4460   18.4388 H   0  0  0  0  0  0  0  0  0  0  0  0
    4.1596  -13.5429   18.1854 H   0  0  0  0  0  0  0  0  0  0  0  0
   -5.0082   -6.5767   15.7462 H   0  0  0  0  0  0  0  0  0  0  0  0
   -2.1180   -7.2944   18.0491 H   0  0  0  0  0  0  0  0  0  0  0  0
   -0.8452   -9.2866   18.9625 H   0  0  0  0  0  0  0  0  0  0  0  0
  1  2  1  0
  2  3  1  0
  3  4  1  0
  4  5  1  0
  5  6  1  0
  6  7  2  0
  7  8  1  0
  8  9  2  0
  9 10  1  0
 10 11  2  0
 11 12  1  0
 12 13  2  0
 13 14  1  0
  3 15  1  0
 15 16  2  0
 16 17  1  0
 17 18  1  0
 18 19  2  0
 18 20  1  0
 17 21  2  0
 21 22  1  0
 14  6  1  0
 22 15  1  0
 14  9  1  0
  1 23  1  0
  1 24  1  0
  1 25  1  0
  2 26  1  0
  2 27  1  0
  3 28  1  0
  4 29  1  0
  5 30  1  0
  5 31  1  0
  7 32  1  0
 10 33  1  0
 11 34  1  0
 12 35  1  0
 13 36  1  0
 20 37  1  0
 21 38  1  0
 22 39  1  0
M  END
>  <Energy>  (686) 
342.66504444611286

>  <compound_id>  (686) 
46112

>  <target_id>  (686) 
1

>  <reference_id>  (686) 
8

>  <inspiration_ids>  (686) 
[101, 8]

>  <energy_score>  (686) 
274.50144375023643

>  <distance_score>  (686) 
17.80939806520291

>  <path>  (686) 
/opt/xchem-fragalysis-2/maxwin/BulkDock/SCRATCH/511024/C46112-P8/C46112-P8.minimised.mol

>  <scratch_subdir>  (686) 
/opt/xchem-fragalysis-2/maxwin/BulkDock/SCRATCH/511024/C46112-P8

>  <fragmenstein_runtime>  (686) 
21.08873963356018

>  <fragmenstein_outcome>  (686) 
too moved

>  <fragmenstein_mode>  (686) 
expansion

>  <fragmenstein_error>  (686) 


$$$$
C46113-P101
     RDKit          3D

 44 47  0  0  0  0  0  0  0  0999 V2000
   -1.9412  -11.9512   21.4468 O   0  0  0  0  0  0  0  0  0  0  0  0
   -0.9404  -12.0682   22.1256 C   0  0  0  0  0  0  0  0  0  0  0  0
    0.1142  -10.8754   22.2182 N   0  0  0  0  0  0  0  0  0  0  0  0
    0.0913   -9.3780   21.6416 C   0  0  0  0  0  0  0  0  0  0  0  0
    0.7653   -7.9826   21.5608 C   0  0  0  0  0  0  0  0  0  0  0  0
    0.6273   -7.1073   20.4664 C   0  0  0  0  0  0  0  0  0  0  0  0
    1.3838   -5.9845   20.7285 N   0  0  0  0  0  0  0  0  0  0  0  0
    1.9049   -5.0277   19.8464 C   0  0  0  0  0  0  0  0  0  0  0  0
    2.7957   -4.1270   20.2986 C   0  0  0  0  0  0  0  0  0  0  0  0
    3.1424   -4.1403   21.7116 C   0  0  0  0  0  0  0  0  0  0  0  0
    2.6055   -5.0408   22.5637 C   0  0  0  0  0  0  0  0  0  0  0  0
    1.7225   -6.0600   22.0770 C   0  0  0  0  0  0  0  0  0  0  0  0
    1.3447   -7.2328   22.5916 N   0  0  0  0  0  0  0  0  0  0  0  0
   -0.5495  -13.7167   23.4032 N   0  0  0  0  0  0  0  0  0  0  0  0
   -1.7300  -15.4443   24.0478 C   0  0  0  0  0  0  0  0  0  0  0  0
   -2.1817  -14.7022   25.6856 C   0  0  0  0  0  0  0  0  0  0  0  0
   -2.1439  -15.7284   27.2169 C   0  0  0  0  0  0  0  0  0  0  0  0
   -2.2964  -17.3777   26.6900 C   0  0  0  0  0  0  0  0  0  0  0  0
   -2.0882  -17.5796   24.8210 C   0  0  0  0  0  0  0  0  0  0  0  0
   -1.6622  -19.2954   23.4880 N   0  0  0  0  0  0  0  0  0  0  0  0
   -2.4258  -20.7529   23.6576 C   0  0  0  0  0  0  0  0  0  0  0  0
   -1.9028  -21.5660   22.6967 C   0  0  0  0  0  0  0  0  0  0  0  0
   -1.0020  -20.8931   21.9107 N   0  0  0  0  0  0  0  0  0  0  0  0
   -0.8657  -19.6444   22.3201 C   0  0  0  0  0  0  0  0  0  0  0  0
    0.8960  -11.2055   22.7533 H   0  0  0  0  0  0  0  0  0  0  0  0
   -0.5762   -9.4478   20.7797 H   0  0  0  0  0  0  0  0  0  0  0  0
   -0.6934   -9.0460   22.3447 H   0  0  0  0  0  0  0  0  0  0  0  0
    0.1731   -7.2708   19.4993 H   0  0  0  0  0  0  0  0  0  0  0  0
    1.5962   -5.0936   18.8113 H   0  0  0  0  0  0  0  0  0  0  0  0
    3.2478   -3.3867   19.6483 H   0  0  0  0  0  0  0  0  0  0  0  0
    3.8340   -3.3851   22.0708 H   0  0  0  0  0  0  0  0  0  0  0  0
    2.8580   -5.0584   23.6174 H   0  0  0  0  0  0  0  0  0  0  0  0
    0.2974  -13.5653   23.9314 H   0  0  0  0  0  0  0  0  0  0  0  0
   -2.7932  -15.2742   23.7335 H   0  0  0  0  0  0  0  0  0  0  0  0
   -1.4735  -13.8872   25.5702 H   0  0  0  0  0  0  0  0  0  0  0  0
   -2.7669  -13.8267   25.9150 H   0  0  0  0  0  0  0  0  0  0  0  0
   -1.3727  -15.3943   27.9130 H   0  0  0  0  0  0  0  0  0  0  0  0
   -2.9226  -15.6928   27.9613 H   0  0  0  0  0  0  0  0  0  0  0  0
   -3.1656  -17.6540   27.2426 H   0  0  0  0  0  0  0  0  0  0  0  0
   -1.3789  -17.8214   27.1101 H   0  0  0  0  0  0  0  0  0  0  0  0
   -1.2198  -17.9746   25.4458 H   0  0  0  0  0  0  0  0  0  0  0  0
   -3.1016  -20.8403   24.5023 H   0  0  0  0  0  0  0  0  0  0  0  0
   -2.1268  -22.6089   22.5198 H   0  0  0  0  0  0  0  0  0  0  0  0
   -0.2943  -18.9125   21.7689 H   0  0  0  0  0  0  0  0  0  0  0  0
  1  2  2  0
  2  3  1  0
  3  4  1  0
  4  5  1  0
  5  6  2  0
  6  7  1  0
  7  8  1  0
  8  9  2  0
  9 10  1  0
 10 11  2  0
 11 12  1  0
 12 13  2  0
  2 14  1  0
 14 15  1  0
 15 16  1  0
 16 17  1  0
 17 18  1  0
 18 19  1  0
 19 20  1  0
 20 21  1  0
 21 22  2  0
 22 23  1  0
 23 24  2  0
 13  5  1  0
 19 15  1  0
 24 20  1  0
 12  7  1  0
  3 25  1  0
  4 26  1  0
  4 27  1  0
  6 28  1  0
  8 29  1  0
  9 30  1  0
 10 31  1  0
 11 32  1  0
 14 33  1  0
 15 34  1  0
 16 35  1  0
 16 36  1  0
 17 37  1  0
 17 38  1  0
 18 39  1  0
 18 40  1  0
 19 41  1  0
 21 42  1  0
 22 43  1  0
 24 44  1  0
M  END
>  <Energy>  (687) 
1096.2462633842886

>  <compound_id>  (687) 
46113

>  <target_id>  (687) 
1

>  <reference_id>  (687) 
101

>  <inspiration_ids>  (687) 
[101, 8]

>  <energy_score>  (687) 
1091.6264337194043

>  <distance_score>  (687) 
13.773597053952935

>  <path>  (687) 
/opt/xchem-fragalysis-2/maxwin/BulkDock/SCRATCH/511024/C46113-P101/C46113-P101.minimised.mol

>  <scratch_subdir>  (687) 
/opt/xchem-fragalysis-2/maxwin/BulkDock/SCRATCH/511024/C46113-P101

>  <fragmenstein_runtime>  (687) 
21.006503343582153

>  <fragmenstein_outcome>  (687) 
too moved

>  <fragmenstein_mode>  (687) 
expansion

>  <fragmenstein_error>  (687) 


$$$$
C46113-P8
     RDKit          3D

 44 47  0  0  0  0  0  0  0  0999 V2000
   -0.0282  -11.0654   22.5022 O   0  0  0  0  0  0  0  0  0  0  0  0
    0.6714  -12.0093   22.8728 C   0  0  0  0  0  0  0  0  0  0  0  0
    2.5720  -12.2379   22.9738 N   0  0  0  0  0  0  0  0  0  0  0  0
    3.9548  -11.1730   22.4275 C   0  0  0  0  0  0  0  0  0  0  0  0
    5.5093  -11.2207   21.4221 C   0  0  0  0  0  0  0  0  0  0  0  0
    6.7001  -10.5327   21.7921 C   0  0  0  0  0  0  0  0  0  0  0  0
    7.6153  -10.7589   20.8009 N   0  0  0  0  0  0  0  0  0  0  0  0
    8.9497  -10.3643   20.7178 C   0  0  0  0  0  0  0  0  0  0  0  0
    9.6737  -10.7677   19.6626 C   0  0  0  0  0  0  0  0  0  0  0  0
    9.0064  -11.4762   18.5804 C   0  0  0  0  0  0  0  0  0  0  0  0
    7.7153  -11.8507   18.6780 C   0  0  0  0  0  0  0  0  0  0  0  0
    6.9788  -11.5589   19.8633 C   0  0  0  0  0  0  0  0  0  0  0  0
    5.7855  -11.9524   20.2875 N   0  0  0  0  0  0  0  0  0  0  0  0
    0.2228  -13.8853   23.4450 N   0  0  0  0  0  0  0  0  0  0  0  0
   -1.5264  -14.8971   23.7667 C   0  0  0  0  0  0  0  0  0  0  0  0
   -2.2488  -13.7333   25.2788 C   0  0  0  0  0  0  0  0  0  0  0  0
   -3.7059  -12.6114   24.5645 C   0  0  0  0  0  0  0  0  0  0  0  0
   -4.5813  -14.2406   23.6725 C   0  0  0  0  0  0  0  0  0  0  0  0
   -3.5489  -15.4771   23.3666 C   0  0  0  0  0  0  0  0  0  0  0  0
   -4.5027  -16.6608   22.0457 N   0  0  0  0  0  0  0  0  0  0  0  0
   -5.5435  -17.1524   20.7476 C   0  0  0  0  0  0  0  0  0  0  0  0
   -5.9691  -18.4413   20.5852 C   0  0  0  0  0  0  0  0  0  0  0  0
   -6.5294  -18.6333   21.7574 N   0  0  0  0  0  0  0  0  0  0  0  0
   -5.8637  -17.8153   22.5574 C   0  0  0  0  0  0  0  0  0  0  0  0
    2.8215  -13.1746   23.2504 H   0  0  0  0  0  0  0  0  0  0  0  0
    3.4216  -10.3922   22.9098 H   0  0  0  0  0  0  0  0  0  0  0  0
    4.8159  -10.7443   23.0272 H   0  0  0  0  0  0  0  0  0  0  0  0
    6.9265   -9.9065   22.6418 H   0  0  0  0  0  0  0  0  0  0  0  0
    9.3611   -9.8021   21.5446 H   0  0  0  0  0  0  0  0  0  0  0  0
   10.7345  -10.5714   19.5797 H   0  0  0  0  0  0  0  0  0  0  0  0
    9.5777  -11.6998   17.6839 H   0  0  0  0  0  0  0  0  0  0  0  0
    7.2102  -12.3880   17.8828 H   0  0  0  0  0  0  0  0  0  0  0  0
    1.0377  -14.3481   23.7551 H   0  0  0  0  0  0  0  0  0  0  0  0
   -1.3130  -15.6256   24.4423 H   0  0  0  0  0  0  0  0  0  0  0  0
   -2.4509  -14.4123   26.0802 H   0  0  0  0  0  0  0  0  0  0  0  0
   -1.5035  -13.0529   25.4926 H   0  0  0  0  0  0  0  0  0  0  0  0
   -3.5463  -11.6301   24.2329 H   0  0  0  0  0  0  0  0  0  0  0  0
   -4.6914  -12.2088   24.7595 H   0  0  0  0  0  0  0  0  0  0  0  0
   -5.4437  -13.6912   23.3053 H   0  0  0  0  0  0  0  0  0  0  0  0
   -3.5527  -14.2615   23.6037 H   0  0  0  0  0  0  0  0  0  0  0  0
   -3.5213  -15.8748   24.3922 H   0  0  0  0  0  0  0  0  0  0  0  0
   -6.3512  -16.4651   20.5899 H   0  0  0  0  0  0  0  0  0  0  0  0
   -6.3497  -18.9372   19.7038 H   0  0  0  0  0  0  0  0  0  0  0  0
   -6.2361  -17.6616   23.5397 H   0  0  0  0  0  0  0  0  0  0  0  0
  1  2  2  0
  2  3  1  0
  3  4  1  0
  4  5  1  0
  5  6  2  0
  6  7  1  0
  7  8  1  0
  8  9  2  0
  9 10  1  0
 10 11  2  0
 11 12  1  0
 12 13  2  0
  2 14  1  0
 14 15  1  0
 15 16  1  0
 16 17  1  0
 17 18  1  0
 18 19  1  0
 19 20  1  0
 20 21  1  0
 21 22  2  0
 22 23  1  0
 23 24  2  0
 13  5  1  0
 19 15  1  0
 24 20  1  0
 12  7  1  0
  3 25  1  0
  4 26  1  0
  4 27  1  0
  6 28  1  0
  8 29  1  0
  9 30  1  0
 10 31  1  0
 11 32  1  0
 14 33  1  0
 15 34  1  0
 16 35  1  0
 16 36  1  0
 17 37  1  0
 17 38  1  0
 18 39  1  0
 18 40  1  0
 19 41  1  0
 21 42  1  0
 22 43  1  0
 24 44  1  0
M  END
>  <Energy>  (688) 
1209.8004511979775

>  <compound_id>  (688) 
46113

>  <target_id>  (688) 
1

>  <reference_id>  (688) 
8

>  <inspiration_ids>  (688) 
[101, 8]

>  <energy_score>  (688) 
1205.1806215331085

>  <distance_score>  (688) 
12.5030159954245

>  <path>  (688) 
/opt/xchem-fragalysis-2/maxwin/BulkDock/SCRATCH/511024/C46113-P8/C46113-P8.minimised.mol

>  <scratch_subdir>  (688) 
/opt/xchem-fragalysis-2/maxwin/BulkDock/SCRATCH/511024/C46113-P8

>  <fragmenstein_runtime>  (688) 
34.51483654975891

>  <fragmenstein_outcome>  (688) 
too moved

>  <fragmenstein_mode>  (688) 
expansion

>  <fragmenstein_error>  (688) 


$$$$
C46114-P101
     RDKit          3D

 47 50  0  0  0  0  0  0  0  0999 V2000
    0.9291  -15.3865   21.3823 O   0  0  0  0  0  0  0  0  0  0  0  0
    1.0102  -15.9286   20.3529 C   0  0  0  0  0  0  0  0  0  0  0  0
    2.2843  -15.2467   19.0106 N   0  0  0  0  0  0  0  0  0  0  0  0
    3.6168  -13.8429   19.1004 C   0  0  0  0  0  0  0  0  0  0  0  0
    5.0391  -13.7321   18.4772 C   0  0  0  0  0  0  0  0  0  0  0  0
    5.8561  -12.4208   18.0891 C   0  0  0  0  0  0  0  0  0  0  0  0
    6.0378  -11.9070   16.8052 C   0  0  0  0  0  0  0  0  0  0  0  0
    7.3808  -11.5850   16.7341 N   0  0  0  0  0  0  0  0  0  0  0  0
    8.1884  -11.4395   15.6105 C   0  0  0  0  0  0  0  0  0  0  0  0
    9.5194  -11.3271   15.7569 C   0  0  0  0  0  0  0  0  0  0  0  0
   10.0769  -11.3742   17.0913 C   0  0  0  0  0  0  0  0  0  0  0  0
    9.2885  -11.4822   18.1791 C   0  0  0  0  0  0  0  0  0  0  0  0
    7.8777  -11.6301   18.0269 C   0  0  0  0  0  0  0  0  0  0  0  0
    6.9464  -12.0265   18.8747 N   0  0  0  0  0  0  0  0  0  0  0  0
    0.0031  -17.4374   20.0759 N   0  0  0  0  0  0  0  0  0  0  0  0
   -1.3888  -18.3446   21.1915 C   0  0  0  0  0  0  0  0  0  0  0  0
   -2.5477  -19.0901   19.8808 C   0  0  0  0  0  0  0  0  0  0  0  0
   -3.0324  -20.6879   20.6241 C   0  0  0  0  0  0  0  0  0  0  0  0
   -2.4115  -20.8942   22.4504 C   0  0  0  0  0  0  0  0  0  0  0  0
   -1.8817  -19.6758   22.8286 C   0  0  0  0  0  0  0  0  0  0  0  0
   -3.3345  -20.4088   24.0254 N   0  0  0  0  0  0  0  0  0  0  0  0
   -4.4493  -19.7406   24.7610 C   0  0  0  0  0  0  0  0  0  0  0  0
   -4.9339  -20.1720   25.9632 C   0  0  0  0  0  0  0  0  0  0  0  0
   -4.9064  -21.3679   25.6941 N   0  0  0  0  0  0  0  0  0  0  0  0
   -4.6678  -21.1495   24.4255 C   0  0  0  0  0  0  0  0  0  0  0  0
    2.2953  -15.8638   18.2185 H   0  0  0  0  0  0  0  0  0  0  0  0
    3.7007  -13.4156   20.1485 H   0  0  0  0  0  0  0  0  0  0  0  0
    3.4867  -12.9264   18.4914 H   0  0  0  0  0  0  0  0  0  0  0  0
    5.6852  -14.1174   19.2453 H   0  0  0  0  0  0  0  0  0  0  0  0
    4.9374  -14.3086   17.5625 H   0  0  0  0  0  0  0  0  0  0  0  0
    5.4737  -12.0523   15.8966 H   0  0  0  0  0  0  0  0  0  0  0  0
    7.7035  -11.4529   14.6419 H   0  0  0  0  0  0  0  0  0  0  0  0
   10.1833  -11.2249   14.9050 H   0  0  0  0  0  0  0  0  0  0  0  0
   11.1569  -11.3442   17.1800 H   0  0  0  0  0  0  0  0  0  0  0  0
    9.7166  -11.5615   19.1686 H   0  0  0  0  0  0  0  0  0  0  0  0
    0.2510  -17.8306   19.1775 H   0  0  0  0  0  0  0  0  0  0  0  0
   -2.0240  -17.4885   21.0434 H   0  0  0  0  0  0  0  0  0  0  0  0
   -3.4492  -18.4803   19.7333 H   0  0  0  0  0  0  0  0  0  0  0  0
   -2.1883  -19.0211   18.8647 H   0  0  0  0  0  0  0  0  0  0  0  0
   -2.5645  -21.5276   20.1500 H   0  0  0  0  0  0  0  0  0  0  0  0
   -4.1143  -20.7102   20.5175 H   0  0  0  0  0  0  0  0  0  0  0  0
   -1.4976  -21.6105   22.5517 H   0  0  0  0  0  0  0  0  0  0  0  0
   -2.1857  -21.5169   23.3155 H   0  0  0  0  0  0  0  0  0  0  0  0
   -1.0299  -19.9040   23.3702 H   0  0  0  0  0  0  0  0  0  0  0  0
   -5.2669  -19.1346   24.2629 H   0  0  0  0  0  0  0  0  0  0  0  0
   -5.5688  -19.6884   26.7198 H   0  0  0  0  0  0  0  0  0  0  0  0
   -5.5545  -21.2526   23.6820 H   0  0  0  0  0  0  0  0  0  0  0  0
  1  2  2  0
  2  3  1  0
  3  4  1  0
  4  5  1  0
  5  6  1  0
  6  7  2  0
  7  8  1  0
  8  9  1  0
  9 10  2  0
 10 11  1  0
 11 12  2  0
 12 13  1  0
 13 14  2  0
  2 15  1  0
 15 16  1  0
 16 17  1  0
 17 18  1  0
 18 19  1  0
 19 20  1  0
 20 21  1  0
 21 22  1  0
 22 23  2  0
 23 24  1  0
 24 25  2  0
 14  6  1  0
 20 16  1  0
 25 21  1  0
 13  8  1  0
  3 26  1  0
  4 27  1  0
  4 28  1  0
  5 29  1  0
  5 30  1  0
  7 31  1  0
  9 32  1  0
 10 33  1  0
 11 34  1  0
 12 35  1  0
 15 36  1  0
 16 37  1  0
 17 38  1  0
 17 39  1  0
 18 40  1  0
 18 41  1  0
 19 42  1  0
 19 43  1  0
 20 44  1  0
 22 45  1  0
 23 46  1  0
 25 47  1  0
M  END
>  <Energy>  (689) 
1096.1994196744636

>  <compound_id>  (689) 
46114

>  <target_id>  (689) 
1

>  <reference_id>  (689) 
101

>  <inspiration_ids>  (689) 
[101, 8]

>  <energy_score>  (689) 
1100.1651360809053

>  <distance_score>  (689) 
11.65480669089851

>  <path>  (689) 
/opt/xchem-fragalysis-2/maxwin/BulkDock/SCRATCH/511024/C46114-P101/C46114-P101.minimised.mol

>  <scratch_subdir>  (689) 
/opt/xchem-fragalysis-2/maxwin/BulkDock/SCRATCH/511024/C46114-P101

>  <fragmenstein_runtime>  (689) 
30.561309099197388

>  <fragmenstein_outcome>  (689) 
too moved

>  <fragmenstein_mode>  (689) 
expansion

>  <fragmenstein_error>  (689) 


$$$$
C46114-P8
     RDKit          3D

 47 50  0  0  0  0  0  0  0  0999 V2000
   -1.1879  -14.7349   21.8287 O   0  0  0  0  0  0  0  0  0  0  0  0
   -0.7951  -14.7279   22.9211 C   0  0  0  0  0  0  0  0  0  0  0  0
    0.7318  -13.8340   23.8247 N   0  0  0  0  0  0  0  0  0  0  0  0
    2.3714  -12.6652   23.2036 C   0  0  0  0  0  0  0  0  0  0  0  0
    3.5056  -13.1055   21.6397 C   0  0  0  0  0  0  0  0  0  0  0  0
    4.8436  -12.6836   20.4617 C   0  0  0  0  0  0  0  0  0  0  0  0
    6.2038  -12.4302   20.4736 C   0  0  0  0  0  0  0  0  0  0  0  0
    6.7219  -12.1769   19.2121 N   0  0  0  0  0  0  0  0  0  0  0  0
    8.0148  -11.8231   18.7806 C   0  0  0  0  0  0  0  0  0  0  0  0
    8.2227  -11.4577   17.5053 C   0  0  0  0  0  0  0  0  0  0  0  0
    7.0896  -11.4527   16.6041 C   0  0  0  0  0  0  0  0  0  0  0  0
    5.8833  -11.9052   17.0026 C   0  0  0  0  0  0  0  0  0  0  0  0
    5.6714  -12.3542   18.3518 C   0  0  0  0  0  0  0  0  0  0  0  0
    4.6364  -12.8738   19.0204 N   0  0  0  0  0  0  0  0  0  0  0  0
   -1.1855  -15.6776   24.3575 N   0  0  0  0  0  0  0  0  0  0  0  0
   -2.3297  -17.4185   24.7806 C   0  0  0  0  0  0  0  0  0  0  0  0
   -1.5592  -19.2130   23.5459 C   0  0  0  0  0  0  0  0  0  0  0  0
   -2.2201  -20.4289   24.3140 C   0  0  0  0  0  0  0  0  0  0  0  0
   -1.8975  -19.7523   26.2822 C   0  0  0  0  0  0  0  0  0  0  0  0
   -2.7126  -18.8537   25.9849 C   0  0  0  0  0  0  0  0  0  0  0  0
   -4.4473  -19.9241   25.9294 N   0  0  0  0  0  0  0  0  0  0  0  0
   -5.5963  -19.1345   27.0134 C   0  0  0  0  0  0  0  0  0  0  0  0
   -6.5152  -19.9143   27.4383 C   0  0  0  0  0  0  0  0  0  0  0  0
   -5.8055  -21.2264   27.4142 N   0  0  0  0  0  0  0  0  0  0  0  0
   -4.9928  -21.1441   26.2417 C   0  0  0  0  0  0  0  0  0  0  0  0
    0.7420  -13.9700   24.8032 H   0  0  0  0  0  0  0  0  0  0  0  0
    1.9895  -11.7107   23.2803 H   0  0  0  0  0  0  0  0  0  0  0  0
    3.0034  -12.9871   24.0204 H   0  0  0  0  0  0  0  0  0  0  0  0
    2.9923  -13.4792   20.7879 H   0  0  0  0  0  0  0  0  0  0  0  0
    3.4014  -14.1685   21.8993 H   0  0  0  0  0  0  0  0  0  0  0  0
    6.8875  -12.4937   21.2674 H   0  0  0  0  0  0  0  0  0  0  0  0
    8.8285  -11.8882   19.4854 H   0  0  0  0  0  0  0  0  0  0  0  0
    9.2036  -11.2005   17.1206 H   0  0  0  0  0  0  0  0  0  0  0  0
    7.2463  -11.1207   15.5814 H   0  0  0  0  0  0  0  0  0  0  0  0
    5.0567  -11.9155   16.3120 H   0  0  0  0  0  0  0  0  0  0  0  0
   -0.7872  -15.3711   24.9775 H   0  0  0  0  0  0  0  0  0  0  0  0
   -1.6104  -17.5472   25.5995 H   0  0  0  0  0  0  0  0  0  0  0  0
   -0.4375  -19.4941   23.3955 H   0  0  0  0  0  0  0  0  0  0  0  0
   -1.5031  -19.1573   22.4528 H   0  0  0  0  0  0  0  0  0  0  0  0
   -3.2567  -20.5719   24.0227 H   0  0  0  0  0  0  0  0  0  0  0  0
   -1.6414  -21.2855   23.9314 H   0  0  0  0  0  0  0  0  0  0  0  0
   -1.7205  -20.1979   27.2392 H   0  0  0  0  0  0  0  0  0  0  0  0
   -1.0490  -19.0150   26.5091 H   0  0  0  0  0  0  0  0  0  0  0  0
   -2.7277  -18.2377   26.9730 H   0  0  0  0  0  0  0  0  0  0  0  0
   -5.1633  -18.3583   27.6354 H   0  0  0  0  0  0  0  0  0  0  0  0
   -7.2674  -19.5673   28.1265 H   0  0  0  0  0  0  0  0  0  0  0  0
   -5.1177  -21.6695   25.3302 H   0  0  0  0  0  0  0  0  0  0  0  0
  1  2  2  0
  2  3  1  0
  3  4  1  0
  4  5  1  0
  5  6  1  0
  6  7  2  0
  7  8  1  0
  8  9  1  0
  9 10  2  0
 10 11  1  0
 11 12  2  0
 12 13  1  0
 13 14  2  0
  2 15  1  0
 15 16  1  0
 16 17  1  0
 17 18  1  0
 18 19  1  0
 19 20  1  0
 20 21  1  0
 21 22  1  0
 22 23  2  0
 23 24  1  0
 24 25  2  0
 14  6  1  0
 20 16  1  0
 25 21  1  0
 13  8  1  0
  3 26  1  0
  4 27  1  0
  4 28  1  0
  5 29  1  0
  5 30  1  0
  7 31  1  0
  9 32  1  0
 10 33  1  0
 11 34  1  0
 12 35  1  0
 15 36  1  0
 16 37  1  0
 17 38  1  0
 17 39  1  0
 18 40  1  0
 18 41  1  0
 19 42  1  0
 19 43  1  0
 20 44  1  0
 22 45  1  0
 23 46  1  0
 25 47  1  0
M  END
>  <Energy>  (690) 
1226.9789375729545

>  <compound_id>  (690) 
46114

>  <target_id>  (690) 
1

>  <reference_id>  (690) 
8

>  <inspiration_ids>  (690) 
[101, 8]

>  <energy_score>  (690) 
1230.9446539794324

>  <distance_score>  (690) 
12.147348031841837

>  <path>  (690) 
/opt/xchem-fragalysis-2/maxwin/BulkDock/SCRATCH/511024/C46114-P8/C46114-P8.minimised.mol

>  <scratch_subdir>  (690) 
/opt/xchem-fragalysis-2/maxwin/BulkDock/SCRATCH/511024/C46114-P8

>  <fragmenstein_runtime>  (690) 
28.953735828399658

>  <fragmenstein_outcome>  (690) 
too moved

>  <fragmenstein_mode>  (690) 
expansion

>  <fragmenstein_error>  (690) 


$$$$
C46115-P101
     RDKit          3D

 35 38  0  0  0  0  0  0  0  0999 V2000
   10.1767  -11.2469   22.9862 O   0  0  0  0  0  0  0  0  0  0  0  0
    9.7381  -10.2949   23.6338 C   0  0  0  0  0  0  0  0  0  0  0  0
    8.7907  -10.5781   24.8178 C   0  0  0  0  0  0  0  0  0  0  0  0
    8.4697  -11.8647   25.1424 C   0  0  0  0  0  0  0  0  0  0  0  0
    7.5975  -12.3770   26.2056 C   0  0  0  0  0  0  0  0  0  0  0  0
    7.0656  -13.6776   26.3607 C   0  0  0  0  0  0  0  0  0  0  0  0
    6.1021  -13.8641   27.4322 C   0  0  0  0  0  0  0  0  0  0  0  0
    5.2357  -15.0391   27.6646 N   0  0  0  0  0  0  0  0  0  0  0  0
    4.3513  -15.2460   28.7163 C   0  0  0  0  0  0  0  0  0  0  0  0
    3.7593  -16.4761   28.5191 C   0  0  0  0  0  0  0  0  0  0  0  0
    4.2350  -17.0542   27.3772 N   0  0  0  0  0  0  0  0  0  0  0  0
    5.0992  -16.1816   26.8884 C   0  0  0  0  0  0  0  0  0  0  0  0
    6.1254  -12.7322   28.2230 C   0  0  0  0  0  0  0  0  0  0  0  0
    7.1000  -11.4583   27.5762 S   0  0  0  0  0  0  0  0  0  0  0  0
   10.1499   -8.9062   23.3232 C   0  0  0  0  0  0  0  0  0  0  0  0
   11.2299   -8.5881   22.5032 C   0  0  0  0  0  0  0  0  0  0  0  0
   11.3459   -7.2253   22.5037 N   0  0  0  0  0  0  0  0  0  0  0  0
   12.2992   -6.4047   21.9022 C   0  0  0  0  0  0  0  0  0  0  0  0
   12.2099   -5.0751   22.0627 C   0  0  0  0  0  0  0  0  0  0  0  0
   11.1411   -4.5498   22.8948 C   0  0  0  0  0  0  0  0  0  0  0  0
   10.2152   -5.3440   23.4597 C   0  0  0  0  0  0  0  0  0  0  0  0
   10.2984   -6.7519   23.2854 C   0  0  0  0  0  0  0  0  0  0  0  0
    9.5580   -7.7346   23.7689 N   0  0  0  0  0  0  0  0  0  0  0  0
    8.4255   -9.7125   25.3551 H   0  0  0  0  0  0  0  0  0  0  0  0
    8.8980  -12.6498   24.5172 H   0  0  0  0  0  0  0  0  0  0  0  0
    7.3304  -14.4752   25.6875 H   0  0  0  0  0  0  0  0  0  0  0  0
    4.2267  -14.5156   29.5005 H   0  0  0  0  0  0  0  0  0  0  0  0
    3.0179  -16.9662   29.1370 H   0  0  0  0  0  0  0  0  0  0  0  0
    5.6598  -16.3110   25.9737 H   0  0  0  0  0  0  0  0  0  0  0  0
    5.5780  -12.5409   29.1354 H   0  0  0  0  0  0  0  0  0  0  0  0
   11.9225   -9.2261   21.9725 H   0  0  0  0  0  0  0  0  0  0  0  0
   13.0886   -6.8779   21.3366 H   0  0  0  0  0  0  0  0  0  0  0  0
   12.9192   -4.3832   21.6205 H   0  0  0  0  0  0  0  0  0  0  0  0
   11.1348   -3.4900   23.1107 H   0  0  0  0  0  0  0  0  0  0  0  0
    9.4418   -4.9428   24.1043 H   0  0  0  0  0  0  0  0  0  0  0  0
  1  2  2  0
  2  3  1  0
  3  4  2  3
  4  5  1  0
  5  6  2  0
  6  7  1  0
  7  8  1  0
  8  9  1  0
  9 10  2  0
 10 11  1  0
 11 12  2  0
  7 13  2  0
 13 14  1  0
  2 15  1  0
 15 16  2  0
 16 17  1  0
 17 18  1  0
 18 19  2  0
 19 20  1  0
 20 21  2  0
 21 22  1  0
 22 23  2  0
 14  5  1  0
 23 15  1  0
 12  8  1  0
 22 17  1  0
  3 24  1  0
  4 25  1  0
  6 26  1  0
  9 27  1  0
 10 28  1  0
 12 29  1  0
 13 30  1  0
 16 31  1  0
 18 32  1  0
 19 33  1  0
 20 34  1  0
 21 35  1  0
M  END
>  <Energy>  (691) 
85.95286752262848

>  <compound_id>  (691) 
46115

>  <target_id>  (691) 
1

>  <reference_id>  (691) 
101

>  <inspiration_ids>  (691) 
[101, 8]

>  <energy_score>  (691) 
-32.092838753528554

>  <distance_score>  (691) 
13.448073316309507

>  <path>  (691) 
/opt/xchem-fragalysis-2/maxwin/BulkDock/SCRATCH/511024/C46115-P101/C46115-P101.minimised.mol

>  <scratch_subdir>  (691) 
/opt/xchem-fragalysis-2/maxwin/BulkDock/SCRATCH/511024/C46115-P101

>  <fragmenstein_runtime>  (691) 
20.901803255081177

>  <fragmenstein_outcome>  (691) 
too moved

>  <fragmenstein_mode>  (691) 
expansion

>  <fragmenstein_error>  (691) 


$$$$
C46115-P8
     RDKit          3D

 35 38  0  0  0  0  0  0  0  0999 V2000
   -2.4832  -16.3191   28.7430 O   0  0  0  0  0  0  0  0  0  0  0  0
   -1.6527  -16.9295   28.0748 C   0  0  0  0  0  0  0  0  0  0  0  0
   -2.0808  -17.4376   26.5301 C   0  0  0  0  0  0  0  0  0  0  0  0
   -2.6513  -16.7332   25.2907 C   0  0  0  0  0  0  0  0  0  0  0  0
   -3.4940  -15.6131   24.0563 C   0  0  0  0  0  0  0  0  0  0  0  0
   -5.2273  -15.4736   23.9481 C   0  0  0  0  0  0  0  0  0  0  0  0
   -6.3723  -17.1835   23.5345 C   0  0  0  0  0  0  0  0  0  0  0  0
   -7.8817  -17.1895   23.5592 N   0  0  0  0  0  0  0  0  0  0  0  0
   -8.7277  -16.2688   24.1442 C   0  0  0  0  0  0  0  0  0  0  0  0
  -10.0050  -16.6888   23.8634 C   0  0  0  0  0  0  0  0  0  0  0  0
   -9.9900  -17.8604   23.1561 N   0  0  0  0  0  0  0  0  0  0  0  0
   -8.7137  -18.1003   22.9286 C   0  0  0  0  0  0  0  0  0  0  0  0
   -5.7919  -17.7720   22.3952 C   0  0  0  0  0  0  0  0  0  0  0  0
   -4.1624  -16.3333   21.9898 S   0  0  0  0  0  0  0  0  0  0  0  0
   -0.1116  -17.0809   28.6141 C   0  0  0  0  0  0  0  0  0  0  0  0
    0.4978  -16.0839   29.4094 C   0  0  0  0  0  0  0  0  0  0  0  0
    1.8214  -15.9541   28.9870 N   0  0  0  0  0  0  0  0  0  0  0  0
    2.7435  -14.9008   29.1485 C   0  0  0  0  0  0  0  0  0  0  0  0
    3.9708  -14.9891   28.5981 C   0  0  0  0  0  0  0  0  0  0  0  0
    4.3316  -16.2137   27.8974 C   0  0  0  0  0  0  0  0  0  0  0  0
    3.4441  -17.2259   27.7484 C   0  0  0  0  0  0  0  0  0  0  0  0
    2.0912  -17.0958   28.2370 C   0  0  0  0  0  0  0  0  0  0  0  0
    0.9586  -17.7635   27.9711 N   0  0  0  0  0  0  0  0  0  0  0  0
   -1.3661  -18.2208   26.3816 H   0  0  0  0  0  0  0  0  0  0  0  0
   -3.3382  -16.6648   26.0422 H   0  0  0  0  0  0  0  0  0  0  0  0
   -4.8905  -15.6717   24.9185 H   0  0  0  0  0  0  0  0  0  0  0  0
   -8.3602  -15.4058   24.6784 H   0  0  0  0  0  0  0  0  0  0  0  0
  -10.9349  -16.2136   24.1498 H   0  0  0  0  0  0  0  0  0  0  0  0
   -8.3279  -18.9300   22.3507 H   0  0  0  0  0  0  0  0  0  0  0  0
   -6.1655  -18.2216   21.4800 H   0  0  0  0  0  0  0  0  0  0  0  0
    0.0502  -15.3232   30.0279 H   0  0  0  0  0  0  0  0  0  0  0  0
    2.4043  -14.0367   29.7052 H   0  0  0  0  0  0  0  0  0  0  0  0
    4.7031  -14.1950   28.6882 H   0  0  0  0  0  0  0  0  0  0  0  0
    5.3400  -16.2985   27.5044 H   0  0  0  0  0  0  0  0  0  0  0  0
    3.7058  -18.1340   27.2163 H   0  0  0  0  0  0  0  0  0  0  0  0
  1  2  2  0
  2  3  1  0
  3  4  2  3
  4  5  1  0
  5  6  2  0
  6  7  1  0
  7  8  1  0
  8  9  1  0
  9 10  2  0
 10 11  1  0
 11 12  2  0
  7 13  2  0
 13 14  1  0
  2 15  1  0
 15 16  2  0
 16 17  1  0
 17 18  1  0
 18 19  2  0
 19 20  1  0
 20 21  2  0
 21 22  1  0
 22 23  2  0
 14  5  1  0
 23 15  1  0
 12  8  1  0
 22 17  1  0
  3 24  1  0
  4 25  1  0
  6 26  1  0
  9 27  1  0
 10 28  1  0
 12 29  1  0
 13 30  1  0
 16 31  1  0
 18 32  1  0
 19 33  1  0
 20 34  1  0
 21 35  1  0
M  END
>  <Energy>  (692) 
646.29266501635516

>  <compound_id>  (692) 
46115

>  <target_id>  (692) 
1

>  <reference_id>  (692) 
8

>  <inspiration_ids>  (692) 
[101, 8]

>  <energy_score>  (692) 
528.2469587401987

>  <distance_score>  (692) 
19.51420194517204

>  <path>  (692) 
/opt/xchem-fragalysis-2/maxwin/BulkDock/SCRATCH/511024/C46115-P8/C46115-P8.minimised.mol

>  <scratch_subdir>  (692) 
/opt/xchem-fragalysis-2/maxwin/BulkDock/SCRATCH/511024/C46115-P8

>  <fragmenstein_runtime>  (692) 
16.06470537185669

>  <fragmenstein_outcome>  (692) 
too moved

>  <fragmenstein_mode>  (692) 
expansion

>  <fragmenstein_error>  (692) 


$$$$
C46116-P101
     RDKit          3D

 43 45  0  0  0  0  0  0  0  0999 V2000
    1.1736  -19.6212   21.6761 C   0  0  0  0  0  0  0  0  0  0  0  0
   -0.4124  -18.4705   21.2458 N   0  0  0  0  0  0  0  0  0  0  0  0
   -1.3131  -19.4203   22.9153 C   0  0  0  0  0  0  0  0  0  0  0  0
   -2.6279  -20.8254   23.7290 C   0  0  0  0  0  0  0  0  0  0  0  0
   -3.8246  -20.3332   23.7649 N   0  0  0  0  0  0  0  0  0  0  0  0
   -3.8757  -19.8182   24.9094 C   0  0  0  0  0  0  0  0  0  0  0  0
   -4.7701  -20.5197   25.4873 C   0  0  0  0  0  0  0  0  0  0  0  0
   -4.2313  -21.4104   24.6236 N   0  0  0  0  0  0  0  0  0  0  0  0
   -5.1455  -22.9470   24.8585 C   0  0  0  0  0  0  0  0  0  0  0  0
    0.1401  -16.7991   21.0423 C   0  0  0  0  0  0  0  0  0  0  0  0
    0.2010  -15.9396   21.8137 O   0  0  0  0  0  0  0  0  0  0  0  0
    0.7747  -16.6935   19.4796 N   0  0  0  0  0  0  0  0  0  0  0  0
    1.8964  -15.2641   18.5736 C   0  0  0  0  0  0  0  0  0  0  0  0
    3.5334  -14.5544   18.3385 C   0  0  0  0  0  0  0  0  0  0  0  0
    4.1925  -13.6471   17.2763 C   0  0  0  0  0  0  0  0  0  0  0  0
    3.8752  -12.9944   16.1023 C   0  0  0  0  0  0  0  0  0  0  0  0
    5.0225  -12.3133   15.7011 N   0  0  0  0  0  0  0  0  0  0  0  0
    5.2770  -11.6003   14.5319 C   0  0  0  0  0  0  0  0  0  0  0  0
    6.5331  -11.2024   14.2726 C   0  0  0  0  0  0  0  0  0  0  0  0
    7.5851  -11.4882   15.2387 C   0  0  0  0  0  0  0  0  0  0  0  0
    7.3135  -12.0813   16.4114 C   0  0  0  0  0  0  0  0  0  0  0  0
    5.9986  -12.5618   16.6509 C   0  0  0  0  0  0  0  0  0  0  0  0
    5.5307  -13.3411   17.5906 N   0  0  0  0  0  0  0  0  0  0  0  0
    1.5435  -20.2267   20.8027 H   0  0  0  0  0  0  0  0  0  0  0  0
    2.1813  -19.2164   21.4624 H   0  0  0  0  0  0  0  0  0  0  0  0
    1.1856  -20.3626   22.4735 H   0  0  0  0  0  0  0  0  0  0  0  0
   -0.3999  -19.7737   23.4228 H   0  0  0  0  0  0  0  0  0  0  0  0
   -1.8343  -20.1017   22.3183 H   0  0  0  0  0  0  0  0  0  0  0  0
   -2.9364  -19.3680   25.4543 H   0  0  0  0  0  0  0  0  0  0  0  0
   -5.1515  -20.7113   26.4500 H   0  0  0  0  0  0  0  0  0  0  0  0
   -5.8235  -22.9827   23.9870 H   0  0  0  0  0  0  0  0  0  0  0  0
   -5.4400  -22.8449   25.9087 H   0  0  0  0  0  0  0  0  0  0  0  0
   -4.6764  -23.9297   24.7961 H   0  0  0  0  0  0  0  0  0  0  0  0
    0.6725  -17.6111   19.0163 H   0  0  0  0  0  0  0  0  0  0  0  0
    1.3428  -14.5227   17.9496 H   0  0  0  0  0  0  0  0  0  0  0  0
    2.4174  -15.9942   17.9235 H   0  0  0  0  0  0  0  0  0  0  0  0
    3.7184  -13.8525   19.1351 H   0  0  0  0  0  0  0  0  0  0  0  0
    4.2337  -15.3977   18.3330 H   0  0  0  0  0  0  0  0  0  0  0  0
    2.9844  -12.9641   15.4949 H   0  0  0  0  0  0  0  0  0  0  0  0
    4.4529  -11.4457   13.8491 H   0  0  0  0  0  0  0  0  0  0  0  0
    6.7865  -10.6920   13.3499 H   0  0  0  0  0  0  0  0  0  0  0  0
    8.6070  -11.2220   14.9913 H   0  0  0  0  0  0  0  0  0  0  0  0
    8.0863  -12.2964   17.1387 H   0  0  0  0  0  0  0  0  0  0  0  0
  1  2  1  0
  2  3  1  0
  3  4  1  0
  4  5  2  0
  5  6  1  0
  6  7  2  0
  7  8  1  0
  8  9  1  0
  2 10  1  0
 10 11  2  0
 10 12  1  0
 12 13  1  0
 13 14  1  0
 14 15  1  0
 15 16  2  0
 16 17  1  0
 17 18  1  0
 18 19  2  0
 19 20  1  0
 20 21  2  0
 21 22  1  0
 22 23  2  0
  8  4  1  0
 23 15  1  0
 22 17  1  0
  1 24  1  0
  1 25  1  0
  1 26  1  0
  3 27  1  0
  3 28  1  0
  6 29  1  0
  7 30  1  0
  9 31  1  0
  9 32  1  0
  9 33  1  0
 12 34  1  0
 13 35  1  0
 13 36  1  0
 14 37  1  0
 14 38  1  0
 16 39  1  0
 18 40  1  0
 19 41  1  0
 20 42  1  0
 21 43  1  0
M  END
>  <Energy>  (693) 
1021.1968127122066

>  <compound_id>  (693) 
46116

>  <target_id>  (693) 
1

>  <reference_id>  (693) 
101

>  <inspiration_ids>  (693) 
[101, 8]

>  <energy_score>  (693) 
1036.6197682505704

>  <distance_score>  (693) 
13.137959545688817

>  <path>  (693) 
/opt/xchem-fragalysis-2/maxwin/BulkDock/SCRATCH/511024/C46116-P101/C46116-P101.minimised.mol

>  <scratch_subdir>  (693) 
/opt/xchem-fragalysis-2/maxwin/BulkDock/SCRATCH/511024/C46116-P101

>  <fragmenstein_runtime>  (693) 
24.33707594871521

>  <fragmenstein_outcome>  (693) 
too moved

>  <fragmenstein_mode>  (693) 
expansion

>  <fragmenstein_error>  (693) 


$$$$
C46116-P8
     RDKit          3D

 43 45  0  0  0  0  0  0  0  0999 V2000
   -1.4192  -13.5179   15.5629 C   0  0  0  0  0  0  0  0  0  0  0  0
   -1.9871  -12.4275   14.7388 N   0  0  0  0  0  0  0  0  0  0  0  0
   -2.8966  -13.5903   14.2218 C   0  0  0  0  0  0  0  0  0  0  0  0
   -3.9536  -14.4100   15.0295 C   0  0  0  0  0  0  0  0  0  0  0  0
   -4.9708  -13.9440   15.7405 N   0  0  0  0  0  0  0  0  0  0  0  0
   -5.8289  -15.0015   15.9338 C   0  0  0  0  0  0  0  0  0  0  0  0
   -5.2688  -16.1756   15.5137 C   0  0  0  0  0  0  0  0  0  0  0  0
   -4.1207  -15.7862   14.8722 N   0  0  0  0  0  0  0  0  0  0  0  0
   -3.3686  -16.6515   13.9915 C   0  0  0  0  0  0  0  0  0  0  0  0
   -0.8760  -11.6712   14.0429 C   0  0  0  0  0  0  0  0  0  0  0  0
   -0.3873  -11.8464   12.9871 O   0  0  0  0  0  0  0  0  0  0  0  0
   -0.6145  -10.6276   15.0536 N   0  0  0  0  0  0  0  0  0  0  0  0
    0.2678   -9.4277   15.0092 C   0  0  0  0  0  0  0  0  0  0  0  0
    1.7732   -9.5677   14.5816 C   0  0  0  0  0  0  0  0  0  0  0  0
    2.6616   -8.5009   15.1626 C   0  0  0  0  0  0  0  0  0  0  0  0
    3.8689   -8.6473   15.8243 C   0  0  0  0  0  0  0  0  0  0  0  0
    4.0531   -7.4664   16.4914 N   0  0  0  0  0  0  0  0  0  0  0  0
    4.9480   -7.1607   17.5021 C   0  0  0  0  0  0  0  0  0  0  0  0
    4.8105   -6.0017   18.1579 C   0  0  0  0  0  0  0  0  0  0  0  0
    3.7175   -5.1073   17.7946 C   0  0  0  0  0  0  0  0  0  0  0  0
    2.9070   -5.3715   16.7578 C   0  0  0  0  0  0  0  0  0  0  0  0
    3.0344   -6.6139   16.0847 C   0  0  0  0  0  0  0  0  0  0  0  0
    2.2476   -7.1898   15.2057 N   0  0  0  0  0  0  0  0  0  0  0  0
   -2.0800  -13.8574   16.3685 H   0  0  0  0  0  0  0  0  0  0  0  0
   -0.9195  -14.3118   14.9911 H   0  0  0  0  0  0  0  0  0  0  0  0
   -0.5843  -13.0663   16.1146 H   0  0  0  0  0  0  0  0  0  0  0  0
   -2.3207  -14.2186   13.5236 H   0  0  0  0  0  0  0  0  0  0  0  0
   -3.5333  -13.0304   13.5165 H   0  0  0  0  0  0  0  0  0  0  0  0
   -6.8143  -14.8541   16.3513 H   0  0  0  0  0  0  0  0  0  0  0  0
   -5.6264  -17.1955   15.5068 H   0  0  0  0  0  0  0  0  0  0  0  0
   -2.3134  -16.3790   14.0140 H   0  0  0  0  0  0  0  0  0  0  0  0
   -3.4870  -17.6885   14.3172 H   0  0  0  0  0  0  0  0  0  0  0  0
   -3.7664  -16.5301   12.9805 H   0  0  0  0  0  0  0  0  0  0  0  0
   -1.2777  -10.7279   15.8147 H   0  0  0  0  0  0  0  0  0  0  0  0
   -0.2221   -8.7182   14.3323 H   0  0  0  0  0  0  0  0  0  0  0  0
    0.2100   -9.0005   16.0174 H   0  0  0  0  0  0  0  0  0  0  0  0
    1.8407   -9.5494   13.4880 H   0  0  0  0  0  0  0  0  0  0  0  0
    2.1370  -10.5502   14.9060 H   0  0  0  0  0  0  0  0  0  0  0  0
    4.4845   -9.5151   16.0158 H   0  0  0  0  0  0  0  0  0  0  0  0
    5.6326   -7.9301   17.8157 H   0  0  0  0  0  0  0  0  0  0  0  0
    5.4281   -5.7679   19.0190 H   0  0  0  0  0  0  0  0  0  0  0  0
    3.5583   -4.2129   18.3898 H   0  0  0  0  0  0  0  0  0  0  0  0
    2.0913   -4.7136   16.4828 H   0  0  0  0  0  0  0  0  0  0  0  0
  1  2  1  0
  2  3  1  0
  3  4  1  0
  4  5  2  0
  5  6  1  0
  6  7  2  0
  7  8  1  0
  8  9  1  0
  2 10  1  0
 10 11  2  0
 10 12  1  0
 12 13  1  0
 13 14  1  0
 14 15  1  0
 15 16  2  0
 16 17  1  0
 17 18  1  0
 18 19  2  0
 19 20  1  0
 20 21  2  0
 21 22  1  0
 22 23  2  0
  8  4  1  0
 23 15  1  0
 22 17  1  0
  1 24  1  0
  1 25  1  0
  1 26  1  0
  3 27  1  0
  3 28  1  0
  6 29  1  0
  7 30  1  0
  9 31  1  0
  9 32  1  0
  9 33  1  0
 12 34  1  0
 13 35  1  0
 13 36  1  0
 14 37  1  0
 14 38  1  0
 16 39  1  0
 18 40  1  0
 19 41  1  0
 20 42  1  0
 21 43  1  0
M  END
>  <Energy>  (694) 
58.929461922420884

>  <compound_id>  (694) 
46116

>  <target_id>  (694) 
1

>  <reference_id>  (694) 
8

>  <inspiration_ids>  (694) 
[101, 8]

>  <energy_score>  (694) 
74.35241746079862

>  <distance_score>  (694) 
14.337857216798662

>  <path>  (694) 
/opt/xchem-fragalysis-2/maxwin/BulkDock/SCRATCH/511024/C46116-P8/C46116-P8.minimised.mol

>  <scratch_subdir>  (694) 
/opt/xchem-fragalysis-2/maxwin/BulkDock/SCRATCH/511024/C46116-P8

>  <fragmenstein_runtime>  (694) 
41.52840518951416

>  <fragmenstein_outcome>  (694) 
too moved

>  <fragmenstein_mode>  (694) 
expansion

>  <fragmenstein_error>  (694) 


$$$$
C46117-P101
     RDKit          3D

 40 43  0  0  0  0  0  0  0  0999 V2000
    0.0195  -14.4695   22.5136 O   0  0  0  0  0  0  0  0  0  0  0  0
    0.1511  -13.9490   23.5794 C   0  0  0  0  0  0  0  0  0  0  0  0
    2.0449  -13.0434   23.9289 C   0  0  0  0  0  0  0  0  0  0  0  0
    3.3266  -12.5204   22.5012 C   0  0  0  0  0  0  0  0  0  0  0  0
    4.3571  -11.5260   22.1030 C   0  0  0  0  0  0  0  0  0  0  0  0
    5.2418  -12.0368   20.7401 N   0  0  0  0  0  0  0  0  0  0  0  0
    6.3507  -11.6966   19.8973 C   0  0  0  0  0  0  0  0  0  0  0  0
    6.6723  -12.2487   18.7184 C   0  0  0  0  0  0  0  0  0  0  0  0
    5.7379  -13.1509   18.1548 C   0  0  0  0  0  0  0  0  0  0  0  0
    4.6309  -13.4240   18.8534 C   0  0  0  0  0  0  0  0  0  0  0  0
    4.4290  -12.9834   20.2629 C   0  0  0  0  0  0  0  0  0  0  0  0
    3.5345  -13.3056   21.2200 N   0  0  0  0  0  0  0  0  0  0  0  0
   -1.0195  -14.0119   24.8470 N   0  0  0  0  0  0  0  0  0  0  0  0
   -2.4535  -14.8454   24.9824 N   0  0  0  0  0  0  0  0  0  0  0  0
   -3.7367  -14.4437   25.5088 C   0  0  0  0  0  0  0  0  0  0  0  0
   -4.1213  -13.3833   25.9062 O   0  0  0  0  0  0  0  0  0  0  0  0
   -4.5439  -15.6981   25.5761 C   0  0  0  0  0  0  0  0  0  0  0  0
   -5.7690  -15.9642   26.1608 C   0  0  0  0  0  0  0  0  0  0  0  0
   -5.8399  -17.3378   26.2744 N   0  0  0  0  0  0  0  0  0  0  0  0
   -4.6715  -17.8516   25.7777 C   0  0  0  0  0  0  0  0  0  0  0  0
   -4.1315  -19.2989   25.9140 C   0  0  0  0  0  0  0  0  0  0  0  0
   -2.8075  -19.4785   26.6201 C   0  0  0  0  0  0  0  0  0  0  0  0
   -4.0710  -19.9646   27.2621 C   0  0  0  0  0  0  0  0  0  0  0  0
   -3.9329  -16.9093   25.2444 N   0  0  0  0  0  0  0  0  0  0  0  0
    2.8506  -13.6297   24.3530 H   0  0  0  0  0  0  0  0  0  0  0  0
    1.8939  -12.0790   24.3354 H   0  0  0  0  0  0  0  0  0  0  0  0
    4.9404  -10.7892   22.6179 H   0  0  0  0  0  0  0  0  0  0  0  0
    6.9167  -10.8263   20.0212 H   0  0  0  0  0  0  0  0  0  0  0  0
    7.4884  -11.8855   18.1034 H   0  0  0  0  0  0  0  0  0  0  0  0
    5.8765  -13.5225   17.1472 H   0  0  0  0  0  0  0  0  0  0  0  0
    3.8778  -14.0675   18.4106 H   0  0  0  0  0  0  0  0  0  0  0  0
   -0.7093  -13.4207   25.6123 H   0  0  0  0  0  0  0  0  0  0  0  0
   -2.4607  -15.8438   24.8225 H   0  0  0  0  0  0  0  0  0  0  0  0
   -6.5153  -15.3160   26.5991 H   0  0  0  0  0  0  0  0  0  0  0  0
   -6.5418  -17.8577   26.7816 H   0  0  0  0  0  0  0  0  0  0  0  0
   -4.2549  -19.9087   25.0256 H   0  0  0  0  0  0  0  0  0  0  0  0
   -2.1195  -20.2127   26.2161 H   0  0  0  0  0  0  0  0  0  0  0  0
   -2.3223  -18.6086   27.0484 H   0  0  0  0  0  0  0  0  0  0  0  0
   -4.4174  -19.4268   28.1374 H   0  0  0  0  0  0  0  0  0  0  0  0
   -4.2237  -21.0366   27.3091 H   0  0  0  0  0  0  0  0  0  0  0  0
  1  2  2  0
  2  3  1  0
  3  4  1  0
  4  5  2  0
  5  6  1  0
  6  7  1  0
  7  8  2  0
  8  9  1  0
  9 10  2  0
 10 11  1  0
 11 12  2  0
  2 13  1  0
 13 14  1  0
 14 15  1  0
 15 16  2  0
 15 17  1  0
 17 18  2  0
 18 19  1  0
 19 20  1  0
 20 21  1  0
 21 22  1  0
 22 23  1  0
 20 24  2  0
 12  4  1  0
 24 17  1  0
 11  6  1  0
 23 21  1  0
  3 25  1  0
  3 26  1  0
  5 27  1  0
  7 28  1  0
  8 29  1  0
  9 30  1  0
 10 31  1  0
 13 32  1  0
 14 33  1  0
 18 34  1  0
 19 35  1  0
 21 36  1  0
 22 37  1  0
 22 38  1  0
 23 39  1  0
 23 40  1  0
M  END
>  <Energy>  (695) 
433.04373269102109

>  <compound_id>  (695) 
46117

>  <target_id>  (695) 
1

>  <reference_id>  (695) 
101

>  <inspiration_ids>  (695) 
[101, 8]

>  <energy_score>  (695) 
275.3932920134372

>  <distance_score>  (695) 
14.13047837697634

>  <path>  (695) 
/opt/xchem-fragalysis-2/maxwin/BulkDock/SCRATCH/511024/C46117-P101/C46117-P101.minimised.mol

>  <scratch_subdir>  (695) 
/opt/xchem-fragalysis-2/maxwin/BulkDock/SCRATCH/511024/C46117-P101

>  <fragmenstein_runtime>  (695) 
36.54296946525574

>  <fragmenstein_outcome>  (695) 
too moved

>  <fragmenstein_mode>  (695) 
expansion

>  <fragmenstein_error>  (695) 


$$$$
C46117-P8
     RDKit          3D

 40 43  0  0  0  0  0  0  0  0999 V2000
    2.9559  -11.3597   22.8851 O   0  0  0  0  0  0  0  0  0  0  0  0
    3.4432  -12.2818   23.3594 C   0  0  0  0  0  0  0  0  0  0  0  0
    5.5087  -11.7546   23.9471 C   0  0  0  0  0  0  0  0  0  0  0  0
    6.8666  -10.7212   24.5474 C   0  0  0  0  0  0  0  0  0  0  0  0
    8.1996  -11.0923   24.7624 C   0  0  0  0  0  0  0  0  0  0  0  0
    8.9169   -9.8895   24.8287 N   0  0  0  0  0  0  0  0  0  0  0  0
   10.2788   -9.6335   24.6135 C   0  0  0  0  0  0  0  0  0  0  0  0
   10.7005   -8.3611   24.4830 C   0  0  0  0  0  0  0  0  0  0  0  0
    9.7330   -7.2797   24.6091 C   0  0  0  0  0  0  0  0  0  0  0  0
    8.4333   -7.5317   24.8683 C   0  0  0  0  0  0  0  0  0  0  0  0
    7.9754   -8.8832   24.9626 C   0  0  0  0  0  0  0  0  0  0  0  0
    6.7647   -9.4054   25.0323 N   0  0  0  0  0  0  0  0  0  0  0  0
    2.2000  -13.6507   23.5809 N   0  0  0  0  0  0  0  0  0  0  0  0
    0.1566  -13.7118   23.2822 N   0  0  0  0  0  0  0  0  0  0  0  0
   -1.2343  -14.8210   23.9884 C   0  0  0  0  0  0  0  0  0  0  0  0
   -0.8189  -15.5877   24.5654 O   0  0  0  0  0  0  0  0  0  0  0  0
   -3.1357  -14.9334   24.1699 C   0  0  0  0  0  0  0  0  0  0  0  0
   -3.8702  -16.1367   24.3652 C   0  0  0  0  0  0  0  0  0  0  0  0
   -5.0794  -15.8105   24.9198 N   0  0  0  0  0  0  0  0  0  0  0  0
   -5.0006  -14.5026   25.2820 C   0  0  0  0  0  0  0  0  0  0  0  0
   -6.1041  -13.7201   26.0378 C   0  0  0  0  0  0  0  0  0  0  0  0
   -6.6900  -14.2899   27.3031 C   0  0  0  0  0  0  0  0  0  0  0  0
   -5.7663  -13.1088   27.3719 C   0  0  0  0  0  0  0  0  0  0  0  0
   -3.8444  -13.9774   24.9372 N   0  0  0  0  0  0  0  0  0  0  0  0
    5.4939  -10.8627   23.2626 H   0  0  0  0  0  0  0  0  0  0  0  0
    5.6437  -12.0837   25.0318 H   0  0  0  0  0  0  0  0  0  0  0  0
    8.7183  -12.0311   24.6339 H   0  0  0  0  0  0  0  0  0  0  0  0
   10.9328  -10.4897   24.5118 H   0  0  0  0  0  0  0  0  0  0  0  0
   11.7404   -8.1171   24.2931 H   0  0  0  0  0  0  0  0  0  0  0  0
   10.0930   -6.2600   24.5132 H   0  0  0  0  0  0  0  0  0  0  0  0
    7.6981   -6.7405   24.9609 H   0  0  0  0  0  0  0  0  0  0  0  0
    2.6910  -14.4415   23.8924 H   0  0  0  0  0  0  0  0  0  0  0  0
   -0.2590  -12.9429   22.8135 H   0  0  0  0  0  0  0  0  0  0  0  0
   -3.6450  -17.1813   24.1909 H   0  0  0  0  0  0  0  0  0  0  0  0
   -5.8320  -16.4420   25.1574 H   0  0  0  0  0  0  0  0  0  0  0  0
   -6.7569  -13.1426   25.3913 H   0  0  0  0  0  0  0  0  0  0  0  0
   -6.3166  -15.2315   27.6883 H   0  0  0  0  0  0  0  0  0  0  0  0
   -7.7424  -14.1173   27.4980 H   0  0  0  0  0  0  0  0  0  0  0  0
   -6.1889  -12.1377   27.6016 H   0  0  0  0  0  0  0  0  0  0  0  0
   -4.7700  -13.2611   27.7718 H   0  0  0  0  0  0  0  0  0  0  0  0
  1  2  2  0
  2  3  1  0
  3  4  1  0
  4  5  2  0
  5  6  1  0
  6  7  1  0
  7  8  2  0
  8  9  1  0
  9 10  2  0
 10 11  1  0
 11 12  2  0
  2 13  1  0
 13 14  1  0
 14 15  1  0
 15 16  2  0
 15 17  1  0
 17 18  2  0
 18 19  1  0
 19 20  1  0
 20 21  1  0
 21 22  1  0
 22 23  1  0
 20 24  2  0
 12  4  1  0
 24 17  1  0
 11  6  1  0
 23 21  1  0
  3 25  1  0
  3 26  1  0
  5 27  1  0
  7 28  1  0
  8 29  1  0
  9 30  1  0
 10 31  1  0
 13 32  1  0
 14 33  1  0
 18 34  1  0
 19 35  1  0
 21 36  1  0
 22 37  1  0
 22 38  1  0
 23 39  1  0
 23 40  1  0
M  END
>  <Energy>  (696) 
840.44919564452368

>  <compound_id>  (696) 
46117

>  <target_id>  (696) 
1

>  <reference_id>  (696) 
8

>  <inspiration_ids>  (696) 
[101, 8]

>  <energy_score>  (696) 
682.7987549669501

>  <distance_score>  (696) 
13.723524357062935

>  <path>  (696) 
/opt/xchem-fragalysis-2/maxwin/BulkDock/SCRATCH/511024/C46117-P8/C46117-P8.minimised.mol

>  <scratch_subdir>  (696) 
/opt/xchem-fragalysis-2/maxwin/BulkDock/SCRATCH/511024/C46117-P8

>  <fragmenstein_runtime>  (696) 
28.657273292541504

>  <fragmenstein_outcome>  (696) 
too moved

>  <fragmenstein_mode>  (696) 
expansion

>  <fragmenstein_error>  (696) 


$$$$
C46121-P101
     RDKit          3D

 34 36  0  0  0  0  0  0  0  0999 V2000
    1.0738   -7.8046   22.2922 O   0  0  0  0  0  0  0  0  0  0  0  0
    1.3156   -8.1560   21.1985 C   0  0  0  0  0  0  0  0  0  0  0  0
    2.5901   -8.0299   20.3970 N   0  0  0  0  0  0  0  0  0  0  0  0
    3.9144   -7.5256   20.7799 C   0  0  0  0  0  0  0  0  0  0  0  0
    4.5497   -6.4477   19.8719 C   0  0  0  0  0  0  0  0  0  0  0  0
    5.8812   -6.0509   20.2927 N   0  0  0  0  0  0  0  0  0  0  0  0
    6.2358   -4.8905   20.9255 C   0  0  0  0  0  0  0  0  0  0  0  0
    7.5984   -4.9717   21.0937 C   0  0  0  0  0  0  0  0  0  0  0  0
    8.0770   -6.1191   20.5130 N   0  0  0  0  0  0  0  0  0  0  0  0
    7.0177   -6.7810   20.1049 C   0  0  0  0  0  0  0  0  0  0  0  0
    0.4597   -8.9141   20.2084 N   0  0  0  0  0  0  0  0  0  0  0  0
   -0.8002   -9.4782   20.3499 C   0  0  0  0  0  0  0  0  0  0  0  0
   -1.6675   -9.4558   21.4276 C   0  0  0  0  0  0  0  0  0  0  0  0
   -2.8295  -10.1502   21.1832 N   0  0  0  0  0  0  0  0  0  0  0  0
   -2.7061  -10.5956   19.9476 C   0  0  0  0  0  0  0  0  0  0  0  0
   -3.5994  -11.3289   19.1120 C   0  0  0  0  0  0  0  0  0  0  0  0
   -3.2415  -11.6452   17.8534 C   0  0  0  0  0  0  0  0  0  0  0  0
   -1.9606  -11.2385   17.3044 C   0  0  0  0  0  0  0  0  0  0  0  0
   -1.1171  -10.5332   18.0759 C   0  0  0  0  0  0  0  0  0  0  0  0
   -1.4801  -10.2217   19.3907 N   0  0  0  0  0  0  0  0  0  0  0  0
    2.4307   -8.3631   19.4646 H   0  0  0  0  0  0  0  0  0  0  0  0
    3.8331   -7.1462   21.8049 H   0  0  0  0  0  0  0  0  0  0  0  0
    4.5658   -8.4062   20.8168 H   0  0  0  0  0  0  0  0  0  0  0  0
    4.6282   -6.8146   18.8418 H   0  0  0  0  0  0  0  0  0  0  0  0
    3.9188   -5.5518   19.8517 H   0  0  0  0  0  0  0  0  0  0  0  0
    5.5151   -4.1384   21.2159 H   0  0  0  0  0  0  0  0  0  0  0  0
    8.2656   -4.2630   21.5684 H   0  0  0  0  0  0  0  0  0  0  0  0
    7.0271   -7.7621   19.6457 H   0  0  0  0  0  0  0  0  0  0  0  0
    1.0021   -9.1240   19.3930 H   0  0  0  0  0  0  0  0  0  0  0  0
   -1.4995   -8.9534   22.3725 H   0  0  0  0  0  0  0  0  0  0  0  0
   -4.5610  -11.6262   19.5131 H   0  0  0  0  0  0  0  0  0  0  0  0
   -3.9118  -12.2127   17.2142 H   0  0  0  0  0  0  0  0  0  0  0  0
   -1.7196  -11.5075   16.2812 H   0  0  0  0  0  0  0  0  0  0  0  0
   -0.1579  -10.1899   17.7164 H   0  0  0  0  0  0  0  0  0  0  0  0
  1  2  2  0
  2  3  1  0
  3  4  1  0
  4  5  1  0
  5  6  1  0
  6  7  1  0
  7  8  2  0
  8  9  1  0
  9 10  2  0
  2 11  1  0
 11 12  1  0
 12 13  2  0
 13 14  1  0
 14 15  2  0
 15 16  1  0
 16 17  2  0
 17 18  1  0
 18 19  2  0
 19 20  1  0
 10  6  1  0
 20 12  1  0
 20 15  1  0
  3 21  1  0
  4 22  1  0
  4 23  1  0
  5 24  1  0
  5 25  1  0
  7 26  1  0
  8 27  1  0
 10 28  1  0
 11 29  1  0
 13 30  1  0
 16 31  1  0
 17 32  1  0
 18 33  1  0
 19 34  1  0
M  END
>  <Energy>  (697) 
15.374454602064969

>  <compound_id>  (697) 
46121

>  <target_id>  (697) 
1

>  <reference_id>  (697) 
101

>  <inspiration_ids>  (697) 
[101, 8]

>  <energy_score>  (697) 
-22.209863886549215

>  <distance_score>  (697) 
14.984768300068232

>  <path>  (697) 
/opt/xchem-fragalysis-2/maxwin/BulkDock/SCRATCH/511024/C46121-P101/C46121-P101.minimised.mol

>  <scratch_subdir>  (697) 
/opt/xchem-fragalysis-2/maxwin/BulkDock/SCRATCH/511024/C46121-P101

>  <fragmenstein_runtime>  (697) 
23.135809898376465

>  <fragmenstein_outcome>  (697) 
too moved

>  <fragmenstein_mode>  (697) 
expansion

>  <fragmenstein_error>  (697) 


$$$$
C46121-P8
     RDKit          3D

 34 36  0  0  0  0  0  0  0  0999 V2000
    6.9097  -18.4816   22.9019 O   0  0  0  0  0  0  0  0  0  0  0  0
    6.5504  -17.4076   23.2189 C   0  0  0  0  0  0  0  0  0  0  0  0
    7.2517  -16.2090   22.9953 N   0  0  0  0  0  0  0  0  0  0  0  0
    8.6306  -15.9234   22.4193 C   0  0  0  0  0  0  0  0  0  0  0  0
    8.7666  -14.8617   21.2160 C   0  0  0  0  0  0  0  0  0  0  0  0
    9.0967  -13.4450   21.3957 N   0  0  0  0  0  0  0  0  0  0  0  0
    8.3228  -12.3848   20.9692 C   0  0  0  0  0  0  0  0  0  0  0  0
    9.1361  -11.2734   21.0044 C   0  0  0  0  0  0  0  0  0  0  0  0
   10.3917  -11.6156   21.4219 N   0  0  0  0  0  0  0  0  0  0  0  0
   10.3472  -12.9173   21.6263 C   0  0  0  0  0  0  0  0  0  0  0  0
    4.7270  -16.8306   24.0701 N   0  0  0  0  0  0  0  0  0  0  0  0
    3.1260  -17.9657   24.7243 C   0  0  0  0  0  0  0  0  0  0  0  0
    2.7114  -17.7775   26.3286 C   0  0  0  0  0  0  0  0  0  0  0  0
    1.1100  -17.9901   27.0713 N   0  0  0  0  0  0  0  0  0  0  0  0
    0.1365  -18.5756   26.1517 C   0  0  0  0  0  0  0  0  0  0  0  0
   -1.6484  -18.8458   26.2866 C   0  0  0  0  0  0  0  0  0  0  0  0
   -2.4429  -19.8548   25.2891 C   0  0  0  0  0  0  0  0  0  0  0  0
   -1.4828  -20.1429   23.5695 C   0  0  0  0  0  0  0  0  0  0  0  0
    0.1553  -19.7300   23.5010 C   0  0  0  0  0  0  0  0  0  0  0  0
    1.2877  -18.7921   24.6999 N   0  0  0  0  0  0  0  0  0  0  0  0
    6.6853  -15.4766   23.2874 H   0  0  0  0  0  0  0  0  0  0  0  0
    8.9903  -16.8908   22.0510 H   0  0  0  0  0  0  0  0  0  0  0  0
    9.2765  -15.6206   23.2501 H   0  0  0  0  0  0  0  0  0  0  0  0
    9.5766  -15.2372   20.5750 H   0  0  0  0  0  0  0  0  0  0  0  0
    7.8548  -14.9039   20.6089 H   0  0  0  0  0  0  0  0  0  0  0  0
    7.2963  -12.5137   20.6519 H   0  0  0  0  0  0  0  0  0  0  0  0
    8.8857  -10.2552   20.7374 H   0  0  0  0  0  0  0  0  0  0  0  0
   11.1881  -13.5323   21.9203 H   0  0  0  0  0  0  0  0  0  0  0  0
    4.6490  -15.8239   24.1689 H   0  0  0  0  0  0  0  0  0  0  0  0
    3.2550  -17.1575   27.0353 H   0  0  0  0  0  0  0  0  0  0  0  0
   -2.0470  -18.5746   27.2580 H   0  0  0  0  0  0  0  0  0  0  0  0
   -3.4113  -20.3341   25.3910 H   0  0  0  0  0  0  0  0  0  0  0  0
   -1.9443  -20.8778   22.9167 H   0  0  0  0  0  0  0  0  0  0  0  0
    0.7938  -20.2066   22.7612 H   0  0  0  0  0  0  0  0  0  0  0  0
  1  2  2  0
  2  3  1  0
  3  4  1  0
  4  5  1  0
  5  6  1  0
  6  7  1  0
  7  8  2  0
  8  9  1  0
  9 10  2  0
  2 11  1  0
 11 12  1  0
 12 13  2  0
 13 14  1  0
 14 15  2  0
 15 16  1  0
 16 17  2  0
 17 18  1  0
 18 19  2  0
 19 20  1  0
 10  6  1  0
 20 12  1  0
 20 15  1  0
  3 21  1  0
  4 22  1  0
  4 23  1  0
  5 24  1  0
  5 25  1  0
  7 26  1  0
  8 27  1  0
 10 28  1  0
 11 29  1  0
 13 30  1  0
 16 31  1  0
 17 32  1  0
 18 33  1  0
 19 34  1  0
M  END
>  <Energy>  (698) 
988.23595823933431

>  <compound_id>  (698) 
46121

>  <target_id>  (698) 
1

>  <reference_id>  (698) 
8

>  <inspiration_ids>  (698) 
[101, 8]

>  <energy_score>  (698) 
950.651639750726

>  <distance_score>  (698) 
15.089474781061414

>  <path>  (698) 
/opt/xchem-fragalysis-2/maxwin/BulkDock/SCRATCH/511024/C46121-P8/C46121-P8.minimised.mol

>  <scratch_subdir>  (698) 
/opt/xchem-fragalysis-2/maxwin/BulkDock/SCRATCH/511024/C46121-P8

>  <fragmenstein_runtime>  (698) 
19.398759126663208

>  <fragmenstein_outcome>  (698) 
too moved

>  <fragmenstein_mode>  (698) 
expansion

>  <fragmenstein_error>  (698) 


$$$$
C46122-P101
     RDKit          3D

 37 39  0  0  0  0  0  0  0  0999 V2000
   10.0154   -5.5568   22.0806 C   0  0  0  0  0  0  0  0  0  0  0  0
    8.6110   -5.0991   21.9123 C   0  0  0  0  0  0  0  0  0  0  0  0
    8.2823   -3.8973   21.4687 N   0  0  0  0  0  0  0  0  0  0  0  0
    6.9227   -3.8483   21.4662 C   0  0  0  0  0  0  0  0  0  0  0  0
    6.4013   -5.0588   21.8317 C   0  0  0  0  0  0  0  0  0  0  0  0
    7.4728   -5.8352   22.2039 N   0  0  0  0  0  0  0  0  0  0  0  0
    7.3137   -7.1908   22.7471 C   0  0  0  0  0  0  0  0  0  0  0  0
    6.4312   -7.2733   24.0495 C   0  0  0  0  0  0  0  0  0  0  0  0
    5.6284   -8.4895   24.3689 N   0  0  0  0  0  0  0  0  0  0  0  0
    4.3477   -8.6536   25.2111 C   0  0  0  0  0  0  0  0  0  0  0  0
    3.6814   -7.8318   25.7210 O   0  0  0  0  0  0  0  0  0  0  0  0
    4.2142  -10.1706   25.2266 N   0  0  0  0  0  0  0  0  0  0  0  0
    3.3171  -11.0104   25.9274 C   0  0  0  0  0  0  0  0  0  0  0  0
    3.1154  -12.3729   25.7141 C   0  0  0  0  0  0  0  0  0  0  0  0
    2.2047  -12.9445   26.5631 N   0  0  0  0  0  0  0  0  0  0  0  0
    1.7601  -11.9506   27.2874 C   0  0  0  0  0  0  0  0  0  0  0  0
    0.7847  -11.9372   28.3238 C   0  0  0  0  0  0  0  0  0  0  0  0
    0.5447  -10.8027   29.0048 C   0  0  0  0  0  0  0  0  0  0  0  0
    1.2717   -9.5831   28.7100 C   0  0  0  0  0  0  0  0  0  0  0  0
    2.1800   -9.5811   27.7193 C   0  0  0  0  0  0  0  0  0  0  0  0
    2.4206  -10.7432   26.9789 N   0  0  0  0  0  0  0  0  0  0  0  0
   10.1907   -5.8672   23.1155 H   0  0  0  0  0  0  0  0  0  0  0  0
   10.7228   -4.7558   21.8509 H   0  0  0  0  0  0  0  0  0  0  0  0
   10.2218   -6.4066   21.4263 H   0  0  0  0  0  0  0  0  0  0  0  0
    6.3804   -2.9551   21.1855 H   0  0  0  0  0  0  0  0  0  0  0  0
    5.3784   -5.4014   21.9138 H   0  0  0  0  0  0  0  0  0  0  0  0
    6.8490   -7.7799   21.9479 H   0  0  0  0  0  0  0  0  0  0  0  0
    8.3079   -7.6052   22.9393 H   0  0  0  0  0  0  0  0  0  0  0  0
    5.7111   -6.4484   24.0795 H   0  0  0  0  0  0  0  0  0  0  0  0
    7.0870   -7.1205   24.9150 H   0  0  0  0  0  0  0  0  0  0  0  0
    6.0007   -9.3968   24.1497 H   0  0  0  0  0  0  0  0  0  0  0  0
    4.9047  -10.5725   24.6181 H   0  0  0  0  0  0  0  0  0  0  0  0
    3.5869  -12.9790   24.9592 H   0  0  0  0  0  0  0  0  0  0  0  0
    0.2515  -12.8563   28.5392 H   0  0  0  0  0  0  0  0  0  0  0  0
   -0.1961  -10.7783   29.7981 H   0  0  0  0  0  0  0  0  0  0  0  0
    1.0763   -8.6971   29.3050 H   0  0  0  0  0  0  0  0  0  0  0  0
    2.7543   -8.6979   27.4983 H   0  0  0  0  0  0  0  0  0  0  0  0
  1  2  1  0
  2  3  2  0
  3  4  1  0
  4  5  2  0
  5  6  1  0
  6  7  1  0
  7  8  1  0
  8  9  1  0
  9 10  1  0
 10 11  2  0
 10 12  1  0
 12 13  1  0
 13 14  2  0
 14 15  1  0
 15 16  2  0
 16 17  1  0
 17 18  2  0
 18 19  1  0
 19 20  2  0
 20 21  1  0
  6  2  1  0
 21 13  1  0
 21 16  1  0
  1 22  1  0
  1 23  1  0
  1 24  1  0
  4 25  1  0
  5 26  1  0
  7 27  1  0
  7 28  1  0
  8 29  1  0
  8 30  1  0
  9 31  1  0
 12 32  1  0
 14 33  1  0
 17 34  1  0
 18 35  1  0
 19 36  1  0
 20 37  1  0
M  END
>  <Energy>  (699) 
28.139132277338238

>  <compound_id>  (699) 
46122

>  <target_id>  (699) 
1

>  <reference_id>  (699) 
101

>  <inspiration_ids>  (699) 
[101, 8]

>  <energy_score>  (699) 
-15.25647050951693

>  <distance_score>  (699) 
14.545593065452238

>  <path>  (699) 
/opt/xchem-fragalysis-2/maxwin/BulkDock/SCRATCH/511024/C46122-P101/C46122-P101.minimised.mol

>  <scratch_subdir>  (699) 
/opt/xchem-fragalysis-2/maxwin/BulkDock/SCRATCH/511024/C46122-P101

>  <fragmenstein_runtime>  (699) 
20.917824029922485

>  <fragmenstein_outcome>  (699) 
too moved

>  <fragmenstein_mode>  (699) 
expansion

>  <fragmenstein_error>  (699) 


$$$$
C46122-P8
     RDKit          3D

 37 39  0  0  0  0  0  0  0  0999 V2000
   11.0325   -5.1621   22.0185 C   0  0  0  0  0  0  0  0  0  0  0  0
    9.5631   -5.1651   21.7623 C   0  0  0  0  0  0  0  0  0  0  0  0
    8.8130   -4.0831   21.6291 N   0  0  0  0  0  0  0  0  0  0  0  0
    7.5513   -4.5209   21.3588 C   0  0  0  0  0  0  0  0  0  0  0  0
    7.5187   -5.8900   21.3011 C   0  0  0  0  0  0  0  0  0  0  0  0
    8.7868   -6.2980   21.6245 N   0  0  0  0  0  0  0  0  0  0  0  0
    9.1562   -7.6934   21.8305 C   0  0  0  0  0  0  0  0  0  0  0  0
    8.7035   -8.2386   23.2111 C   0  0  0  0  0  0  0  0  0  0  0  0
    7.6476   -9.2656   23.2719 N   0  0  0  0  0  0  0  0  0  0  0  0
    7.7206  -10.7352   23.6279 C   0  0  0  0  0  0  0  0  0  0  0  0
    8.6544  -11.4079   23.8604 O   0  0  0  0  0  0  0  0  0  0  0  0
    6.2333  -11.0643   23.6974 N   0  0  0  0  0  0  0  0  0  0  0  0
    5.5735  -12.2171   24.1429 C   0  0  0  0  0  0  0  0  0  0  0  0
    4.2147  -12.3765   24.4079 C   0  0  0  0  0  0  0  0  0  0  0  0
    3.9534  -13.5166   25.1237 N   0  0  0  0  0  0  0  0  0  0  0  0
    5.1039  -14.1395   25.2125 C   0  0  0  0  0  0  0  0  0  0  0  0
    5.4752  -15.3471   25.8745 C   0  0  0  0  0  0  0  0  0  0  0  0
    6.7018  -15.8682   25.6906 C   0  0  0  0  0  0  0  0  0  0  0  0
    7.6677  -15.2207   24.8257 C   0  0  0  0  0  0  0  0  0  0  0  0
    7.3569  -14.0348   24.2767 C   0  0  0  0  0  0  0  0  0  0  0  0
    6.1044  -13.4571   24.5091 N   0  0  0  0  0  0  0  0  0  0  0  0
   11.2671   -5.7928   22.8822 H   0  0  0  0  0  0  0  0  0  0  0  0
   11.5870   -5.5406   21.1568 H   0  0  0  0  0  0  0  0  0  0  0  0
   11.3861   -4.1564   22.2472 H   0  0  0  0  0  0  0  0  0  0  0  0
    6.7292   -3.8308   21.2220 H   0  0  0  0  0  0  0  0  0  0  0  0
    6.7112   -6.5852   21.1185 H   0  0  0  0  0  0  0  0  0  0  0  0
    8.7198   -8.2737   21.0099 H   0  0  0  0  0  0  0  0  0  0  0  0
   10.2457   -7.7565   21.7443 H   0  0  0  0  0  0  0  0  0  0  0  0
    9.5775   -8.7024   23.6837 H   0  0  0  0  0  0  0  0  0  0  0  0
    8.3773   -7.4275   23.8717 H   0  0  0  0  0  0  0  0  0  0  0  0
    6.6854   -8.9843   23.2169 H   0  0  0  0  0  0  0  0  0  0  0  0
    5.7025  -10.2848   23.3538 H   0  0  0  0  0  0  0  0  0  0  0  0
    3.4226  -11.6697   24.2061 H   0  0  0  0  0  0  0  0  0  0  0  0
    4.7592  -15.8175   26.5374 H   0  0  0  0  0  0  0  0  0  0  0  0
    7.0057  -16.7772   26.2013 H   0  0  0  0  0  0  0  0  0  0  0  0
    8.6320  -15.6906   24.6611 H   0  0  0  0  0  0  0  0  0  0  0  0
    8.0477  -13.5160   23.6313 H   0  0  0  0  0  0  0  0  0  0  0  0
  1  2  1  0
  2  3  2  0
  3  4  1  0
  4  5  2  0
  5  6  1  0
  6  7  1  0
  7  8  1  0
  8  9  1  0
  9 10  1  0
 10 11  2  0
 10 12  1  0
 12 13  1  0
 13 14  2  0
 14 15  1  0
 15 16  2  0
 16 17  1  0
 17 18  2  0
 18 19  1  0
 19 20  2  0
 20 21  1  0
  6  2  1  0
 21 13  1  0
 21 16  1  0
  1 22  1  0
  1 23  1  0
  1 24  1  0
  4 25  1  0
  5 26  1  0
  7 27  1  0
  7 28  1  0
  8 29  1  0
  8 30  1  0
  9 31  1  0
 12 32  1  0
 14 33  1  0
 17 34  1  0
 18 35  1  0
 19 36  1  0
 20 37  1  0
M  END
>  <Energy>  (700) 
23.404316179749983

>  <compound_id>  (700) 
46122

>  <target_id>  (700) 
1

>  <reference_id>  (700) 
8

>  <inspiration_ids>  (700) 
[101, 8]

>  <energy_score>  (700) 
-19.99128660710629

>  <distance_score>  (700) 
14.468587938771401

>  <path>  (700) 
/opt/xchem-fragalysis-2/maxwin/BulkDock/SCRATCH/511024/C46122-P8/C46122-P8.minimised.mol

>  <scratch_subdir>  (700) 
/opt/xchem-fragalysis-2/maxwin/BulkDock/SCRATCH/511024/C46122-P8

>  <fragmenstein_runtime>  (700) 
15.077505111694336

>  <fragmenstein_outcome>  (700) 
too moved

>  <fragmenstein_mode>  (700) 
expansion

>  <fragmenstein_error>  (700) 


$$$$
C46124-P101
     RDKit          3D

 32 34  0  0  0  0  0  0  0  0999 V2000
    2.4253  -20.2754   26.2775 C   0  0  0  0  0  0  0  0  0  0  0  0
    3.3285  -19.1877   26.0070 N   0  0  0  0  0  0  0  0  0  0  0  0
    3.9186  -18.9148   24.8082 C   0  0  0  0  0  0  0  0  0  0  0  0
    4.7280  -17.8703   24.8784 N   0  0  0  0  0  0  0  0  0  0  0  0
    4.7005  -17.4689   26.2068 C   0  0  0  0  0  0  0  0  0  0  0  0
    5.6340  -16.1427   26.9636 S   0  0  0  0  0  0  0  0  0  0  0  0
    6.7755  -16.8320   27.5289 O   0  0  0  0  0  0  0  0  0  0  0  0
    4.5952  -15.6308   27.8545 O   0  0  0  0  0  0  0  0  0  0  0  0
    6.2150  -14.7839   26.1318 N   0  0  0  0  0  0  0  0  0  0  0  0
    7.5224  -14.5513   25.4081 C   0  0  0  0  0  0  0  0  0  0  0  0
    8.4294  -15.3036   25.1800 O   0  0  0  0  0  0  0  0  0  0  0  0
    7.7350  -13.0966   25.0049 C   0  0  0  0  0  0  0  0  0  0  0  0
    7.2962  -11.9286   25.6273 C   0  0  0  0  0  0  0  0  0  0  0  0
    7.6198  -10.7751   24.9516 N   0  0  0  0  0  0  0  0  0  0  0  0
    8.3495  -11.1647   23.9344 C   0  0  0  0  0  0  0  0  0  0  0  0
    8.9695  -10.3940   22.9006 C   0  0  0  0  0  0  0  0  0  0  0  0
    9.7296  -11.0024   21.9734 C   0  0  0  0  0  0  0  0  0  0  0  0
    9.9253  -12.4409   22.0071 C   0  0  0  0  0  0  0  0  0  0  0  0
    9.3215  -13.1782   22.9621 C   0  0  0  0  0  0  0  0  0  0  0  0
    8.5191  -12.5630   23.9348 N   0  0  0  0  0  0  0  0  0  0  0  0
    3.8069  -18.2834   26.9112 C   0  0  0  0  0  0  0  0  0  0  0  0
    2.0574  -20.6872   25.3348 H   0  0  0  0  0  0  0  0  0  0  0  0
    2.9694  -21.0418   26.8350 H   0  0  0  0  0  0  0  0  0  0  0  0
    1.5895  -19.8954   26.8700 H   0  0  0  0  0  0  0  0  0  0  0  0
    3.7293  -19.5019   23.9173 H   0  0  0  0  0  0  0  0  0  0  0  0
    5.7166  -13.9043   26.2146 H   0  0  0  0  0  0  0  0  0  0  0  0
    6.7301  -11.8645   26.5488 H   0  0  0  0  0  0  0  0  0  0  0  0
    8.8142   -9.3217   22.8918 H   0  0  0  0  0  0  0  0  0  0  0  0
   10.2098  -10.4360   21.1814 H   0  0  0  0  0  0  0  0  0  0  0  0
   10.5514  -12.9002   21.2482 H   0  0  0  0  0  0  0  0  0  0  0  0
    9.4296  -14.2550   23.0192 H   0  0  0  0  0  0  0  0  0  0  0  0
    3.5203  -18.2821   27.9543 H   0  0  0  0  0  0  0  0  0  0  0  0
  1  2  1  0
  2  3  1  0
  3  4  2  0
  4  5  1  0
  5  6  1  0
  6  7  2  0
  6  8  2  0
  6  9  1  0
  9 10  1  0
 10 11  2  0
 10 12  1  0
 12 13  2  0
 13 14  1  0
 14 15  2  0
 15 16  1  0
 16 17  2  0
 17 18  1  0
 18 19  2  0
 19 20  1  0
  5 21  2  0
 21  2  1  0
 20 12  1  0
 20 15  1  0
  1 22  1  0
  1 23  1  0
  1 24  1  0
  3 25  1  0
  9 26  1  0
 13 27  1  0
 16 28  1  0
 17 29  1  0
 18 30  1  0
 19 31  1  0
 21 32  1  0
M  END
>  <Energy>  (701) 
-22.408264932809669

>  <compound_id>  (701) 
46124

>  <target_id>  (701) 
1

>  <reference_id>  (701) 
101

>  <inspiration_ids>  (701) 
[101, 8]

>  <energy_score>  (701) 
-10.044106064076175

>  <distance_score>  (701) 
15.821841215834212

>  <path>  (701) 
/opt/xchem-fragalysis-2/maxwin/BulkDock/SCRATCH/511024/C46124-P101/C46124-P101.minimised.mol

>  <scratch_subdir>  (701) 
/opt/xchem-fragalysis-2/maxwin/BulkDock/SCRATCH/511024/C46124-P101

>  <fragmenstein_runtime>  (701) 
18.15537667274475

>  <fragmenstein_outcome>  (701) 
too moved

>  <fragmenstein_mode>  (701) 
expansion

>  <fragmenstein_error>  (701) 


$$$$
C46124-P8
     RDKit          3D

 32 34  0  0  0  0  0  0  0  0999 V2000
   -2.5820  -16.7243   30.6218 C   0  0  0  0  0  0  0  0  0  0  0  0
   -2.3901  -16.4496   29.2176 N   0  0  0  0  0  0  0  0  0  0  0  0
   -2.5297  -17.3354   28.2190 C   0  0  0  0  0  0  0  0  0  0  0  0
   -2.3170  -16.7260   27.0849 N   0  0  0  0  0  0  0  0  0  0  0  0
   -2.0323  -15.2028   27.2757 C   0  0  0  0  0  0  0  0  0  0  0  0
   -1.5312  -13.8300   25.4760 S   0  0  0  0  0  0  0  0  0  0  0  0
   -1.8111  -15.0156   24.6488 O   0  0  0  0  0  0  0  0  0  0  0  0
   -2.4671  -12.7419   25.6668 O   0  0  0  0  0  0  0  0  0  0  0  0
    0.8685  -13.7962   25.9074 N   0  0  0  0  0  0  0  0  0  0  0  0
    2.2569  -13.2418   24.9131 C   0  0  0  0  0  0  0  0  0  0  0  0
    2.2806  -12.6492   23.8524 O   0  0  0  0  0  0  0  0  0  0  0  0
    3.7738  -13.9851   25.8362 C   0  0  0  0  0  0  0  0  0  0  0  0
    4.0486  -14.2263   27.2492 C   0  0  0  0  0  0  0  0  0  0  0  0
    5.3898  -14.0527   27.5442 N   0  0  0  0  0  0  0  0  0  0  0  0
    5.9754  -14.2201   26.3889 C   0  0  0  0  0  0  0  0  0  0  0  0
    7.3486  -14.2399   26.0091 C   0  0  0  0  0  0  0  0  0  0  0  0
    7.7267  -15.0491   25.0035 C   0  0  0  0  0  0  0  0  0  0  0  0
    6.7441  -15.8841   24.3244 C   0  0  0  0  0  0  0  0  0  0  0  0
    5.4237  -15.6733   24.5372 C   0  0  0  0  0  0  0  0  0  0  0  0
    5.0072  -14.7100   25.4862 N   0  0  0  0  0  0  0  0  0  0  0  0
   -2.0607  -15.1975   28.6942 C   0  0  0  0  0  0  0  0  0  0  0  0
   -2.7627  -17.7927   30.7652 H   0  0  0  0  0  0  0  0  0  0  0  0
   -1.6777  -16.4256   31.1582 H   0  0  0  0  0  0  0  0  0  0  0  0
   -3.4433  -16.1491   30.9704 H   0  0  0  0  0  0  0  0  0  0  0  0
   -2.7868  -18.3782   28.3482 H   0  0  0  0  0  0  0  0  0  0  0  0
    1.1906  -14.1875   26.7798 H   0  0  0  0  0  0  0  0  0  0  0  0
    3.3542  -14.2061   28.0710 H   0  0  0  0  0  0  0  0  0  0  0  0
    8.0609  -13.6533   26.5766 H   0  0  0  0  0  0  0  0  0  0  0  0
    8.7665  -15.1230   24.7010 H   0  0  0  0  0  0  0  0  0  0  0  0
    7.0996  -16.6115   23.6017 H   0  0  0  0  0  0  0  0  0  0  0  0
    4.6695  -16.1966   23.9765 H   0  0  0  0  0  0  0  0  0  0  0  0
   -2.0664  -14.4465   29.4543 H   0  0  0  0  0  0  0  0  0  0  0  0
  1  2  1  0
  2  3  1  0
  3  4  2  0
  4  5  1  0
  5  6  1  0
  6  7  2  0
  6  8  2  0
  6  9  1  0
  9 10  1  0
 10 11  2  0
 10 12  1  0
 12 13  2  0
 13 14  1  0
 14 15  2  0
 15 16  1  0
 16 17  2  0
 17 18  1  0
 18 19  2  0
 19 20  1  0
  5 21  2  0
 21  2  1  0
 20 12  1  0
 20 15  1  0
  1 22  1  0
  1 23  1  0
  1 24  1  0
  3 25  1  0
  9 26  1  0
 13 27  1  0
 16 28  1  0
 17 29  1  0
 18 30  1  0
 19 31  1  0
 21 32  1  0
M  END
>  <Energy>  (702) 
339.40123917748559

>  <compound_id>  (702) 
46124

>  <target_id>  (702) 
1

>  <reference_id>  (702) 
8

>  <inspiration_ids>  (702) 
[101, 8]

>  <energy_score>  (702) 
351.7653980462195

>  <distance_score>  (702) 
16.687396497185333

>  <path>  (702) 
/opt/xchem-fragalysis-2/maxwin/BulkDock/SCRATCH/511024/C46124-P8/C46124-P8.minimised.mol

>  <scratch_subdir>  (702) 
/opt/xchem-fragalysis-2/maxwin/BulkDock/SCRATCH/511024/C46124-P8

>  <fragmenstein_runtime>  (702) 
19.69803810119629

>  <fragmenstein_outcome>  (702) 
too moved

>  <fragmenstein_mode>  (702) 
expansion

>  <fragmenstein_error>  (702) 


$$$$
C46126-P101
     RDKit          3D

 42 44  0  0  0  0  0  0  0  0999 V2000
   -2.1623  -14.6300   26.0441 O   0  0  0  0  0  0  0  0  0  0  0  0
   -2.0552  -14.6531   24.8524 C   0  0  0  0  0  0  0  0  0  0  0  0
   -0.4837  -14.1198   23.6452 C   0  0  0  0  0  0  0  0  0  0  0  0
   -0.0595  -12.2464   22.7636 C   0  0  0  0  0  0  0  0  0  0  0  0
   -0.7993  -10.2968   21.6759 S   0  0  0  0  0  0  0  0  0  0  0  0
    0.3841   -8.8442   20.8997 C   0  0  0  0  0  0  0  0  0  0  0  0
    0.8519   -8.3276   19.2449 C   0  0  0  0  0  0  0  0  0  0  0  0
    0.5049   -7.2898   18.3719 C   0  0  0  0  0  0  0  0  0  0  0  0
    1.4846   -7.1719   17.3966 N   0  0  0  0  0  0  0  0  0  0  0  0
    1.6691   -6.2128   16.4052 C   0  0  0  0  0  0  0  0  0  0  0  0
    2.6689   -6.3722   15.5216 C   0  0  0  0  0  0  0  0  0  0  0  0
    3.5387   -7.5360   15.6343 C   0  0  0  0  0  0  0  0  0  0  0  0
    3.3684   -8.4358   16.6154 C   0  0  0  0  0  0  0  0  0  0  0  0
    2.3047   -8.2603   17.5392 C   0  0  0  0  0  0  0  0  0  0  0  0
    1.9657   -8.9324   18.6106 N   0  0  0  0  0  0  0  0  0  0  0  0
   -3.1561  -14.9588   23.6996 N   0  0  0  0  0  0  0  0  0  0  0  0
   -4.7080  -15.1609   23.7894 C   0  0  0  0  0  0  0  0  0  0  0  0
   -6.0017  -13.5041   23.6739 C   0  0  0  0  0  0  0  0  0  0  0  0
   -7.2332  -13.1446   24.5712 N   0  0  0  0  0  0  0  0  0  0  0  0
   -8.0153  -12.0232   24.3628 C   0  0  0  0  0  0  0  0  0  0  0  0
   -8.9766  -12.0235   25.3476 C   0  0  0  0  0  0  0  0  0  0  0  0
   -8.8971  -13.1485   26.1001 N   0  0  0  0  0  0  0  0  0  0  0  0
   -7.8977  -13.8144   25.5764 C   0  0  0  0  0  0  0  0  0  0  0  0
    0.4489  -14.2921   24.1564 H   0  0  0  0  0  0  0  0  0  0  0  0
   -0.6471  -14.6086   22.6806 H   0  0  0  0  0  0  0  0  0  0  0  0
    0.9084  -11.8009   22.9476 H   0  0  0  0  0  0  0  0  0  0  0  0
   -0.9230  -12.0233   22.1012 H   0  0  0  0  0  0  0  0  0  0  0  0
    0.9932   -8.4164   21.6917 H   0  0  0  0  0  0  0  0  0  0  0  0
   -0.4993   -8.2207   20.9429 H   0  0  0  0  0  0  0  0  0  0  0  0
   -0.2927   -6.5737   18.3390 H   0  0  0  0  0  0  0  0  0  0  0  0
    0.9702   -5.3873   16.3740 H   0  0  0  0  0  0  0  0  0  0  0  0
    2.8052   -5.6683   14.7098 H   0  0  0  0  0  0  0  0  0  0  0  0
    4.3164   -7.7033   14.9000 H   0  0  0  0  0  0  0  0  0  0  0  0
    3.9977   -9.3133   16.7130 H   0  0  0  0  0  0  0  0  0  0  0  0
   -2.7097  -14.9821   22.8134 H   0  0  0  0  0  0  0  0  0  0  0  0
   -4.4758  -14.1857   23.5376 H   0  0  0  0  0  0  0  0  0  0  0  0
   -4.5566  -15.5286   22.8150 H   0  0  0  0  0  0  0  0  0  0  0  0
   -5.4142  -12.6650   24.1114 H   0  0  0  0  0  0  0  0  0  0  0  0
   -6.1798  -12.9416   22.7629 H   0  0  0  0  0  0  0  0  0  0  0  0
   -7.8406  -11.3427   23.5449 H   0  0  0  0  0  0  0  0  0  0  0  0
   -9.7442  -11.2810   25.5222 H   0  0  0  0  0  0  0  0  0  0  0  0
   -7.7741  -14.8607   25.7457 H   0  0  0  0  0  0  0  0  0  0  0  0
  1  2  2  0
  2  3  1  0
  3  4  1  0
  4  5  1  0
  5  6  1  0
  6  7  1  0
  7  8  2  0
  8  9  1  0
  9 10  1  0
 10 11  2  0
 11 12  1  0
 12 13  2  0
 13 14  1  0
 14 15  2  0
  2 16  1  0
 16 17  1  0
 17 18  1  0
 18 19  1  0
 19 20  1  0
 20 21  2  0
 21 22  1  0
 22 23  2  0
 15  7  1  0
 23 19  1  0
 14  9  1  0
  3 24  1  0
  3 25  1  0
  4 26  1  0
  4 27  1  0
  6 28  1  0
  6 29  1  0
  8 30  1  0
 10 31  1  0
 11 32  1  0
 12 33  1  0
 13 34  1  0
 16 35  1  0
 17 36  1  0
 17 37  1  0
 18 38  1  0
 18 39  1  0
 20 40  1  0
 21 41  1  0
 23 42  1  0
M  END
>  <Energy>  (703) 
630.80123551969837

>  <compound_id>  (703) 
46126

>  <target_id>  (703) 
1

>  <reference_id>  (703) 
101

>  <inspiration_ids>  (703) 
[101, 8]

>  <energy_score>  (703) 
568.6449101059909

>  <distance_score>  (703) 
13.996720754682237

>  <path>  (703) 
/opt/xchem-fragalysis-2/maxwin/BulkDock/SCRATCH/511024/C46126-P101/C46126-P101.minimised.mol

>  <scratch_subdir>  (703) 
/opt/xchem-fragalysis-2/maxwin/BulkDock/SCRATCH/511024/C46126-P101

>  <fragmenstein_runtime>  (703) 
35.392462730407715

>  <fragmenstein_outcome>  (703) 
too moved

>  <fragmenstein_mode>  (703) 
expansion

>  <fragmenstein_error>  (703) 


$$$$
C46126-P8
     RDKit          3D

 42 44  0  0  0  0  0  0  0  0999 V2000
    1.5699  -15.5281   20.4963 O   0  0  0  0  0  0  0  0  0  0  0  0
    0.7168  -15.7146   21.3167 C   0  0  0  0  0  0  0  0  0  0  0  0
    1.2331  -14.7126   23.0940 C   0  0  0  0  0  0  0  0  0  0  0  0
    2.8711  -13.8077   23.3835 C   0  0  0  0  0  0  0  0  0  0  0  0
    3.4858  -12.2258   22.4764 S   0  0  0  0  0  0  0  0  0  0  0  0
    4.8171  -12.5241   20.6809 C   0  0  0  0  0  0  0  0  0  0  0  0
    6.2983  -11.9879   20.0864 C   0  0  0  0  0  0  0  0  0  0  0  0
    6.6552  -11.9054   18.7432 C   0  0  0  0  0  0  0  0  0  0  0  0
    7.9969  -11.6209   18.6992 N   0  0  0  0  0  0  0  0  0  0  0  0
    8.8698  -11.6185   17.6115 C   0  0  0  0  0  0  0  0  0  0  0  0
   10.1894  -11.4885   17.8305 C   0  0  0  0  0  0  0  0  0  0  0  0
   10.6528  -11.2762   19.1951 C   0  0  0  0  0  0  0  0  0  0  0  0
    9.7921  -11.1964   20.2298 C   0  0  0  0  0  0  0  0  0  0  0  0
    8.4029  -11.4350   20.0137 C   0  0  0  0  0  0  0  0  0  0  0  0
    7.4037  -11.6271   20.8585 N   0  0  0  0  0  0  0  0  0  0  0  0
   -0.5014  -16.4259   21.2186 N   0  0  0  0  0  0  0  0  0  0  0  0
   -1.1883  -17.0970   20.0270 C   0  0  0  0  0  0  0  0  0  0  0  0
   -2.3506  -18.2278   19.5108 C   0  0  0  0  0  0  0  0  0  0  0  0
   -3.7770  -18.3691   19.2123 N   0  0  0  0  0  0  0  0  0  0  0  0
   -4.4899  -19.5450   19.4850 C   0  0  0  0  0  0  0  0  0  0  0  0
   -5.7738  -19.3386   19.0614 C   0  0  0  0  0  0  0  0  0  0  0  0
   -5.8125  -18.2025   18.3179 N   0  0  0  0  0  0  0  0  0  0  0  0
   -4.5806  -17.7272   18.3232 C   0  0  0  0  0  0  0  0  0  0  0  0
    0.4095  -14.1914   23.6614 H   0  0  0  0  0  0  0  0  0  0  0  0
    1.8252  -15.4211   23.5663 H   0  0  0  0  0  0  0  0  0  0  0  0
    2.6184  -13.2221   24.2676 H   0  0  0  0  0  0  0  0  0  0  0  0
    3.5813  -14.5637   23.7433 H   0  0  0  0  0  0  0  0  0  0  0  0
    5.2375  -13.4565   20.9380 H   0  0  0  0  0  0  0  0  0  0  0  0
    5.0647  -11.5975   21.2016 H   0  0  0  0  0  0  0  0  0  0  0  0
    6.0875  -12.1193   17.8486 H   0  0  0  0  0  0  0  0  0  0  0  0
    8.4452  -11.7781   16.6278 H   0  0  0  0  0  0  0  0  0  0  0  0
   10.9095  -11.5137   17.0187 H   0  0  0  0  0  0  0  0  0  0  0  0
   11.7214  -11.1777   19.3568 H   0  0  0  0  0  0  0  0  0  0  0  0
   10.1365  -11.0420   21.2457 H   0  0  0  0  0  0  0  0  0  0  0  0
   -0.9825  -16.3131   22.0259 H   0  0  0  0  0  0  0  0  0  0  0  0
   -0.2890  -17.5669   19.6318 H   0  0  0  0  0  0  0  0  0  0  0  0
   -1.5908  -16.2068   19.5339 H   0  0  0  0  0  0  0  0  0  0  0  0
   -2.2381  -19.1336   20.0562 H   0  0  0  0  0  0  0  0  0  0  0  0
   -1.9292  -18.4759   18.5356 H   0  0  0  0  0  0  0  0  0  0  0  0
   -4.0496  -20.3794   20.0068 H   0  0  0  0  0  0  0  0  0  0  0  0
   -6.6395  -19.9739   19.1926 H   0  0  0  0  0  0  0  0  0  0  0  0
   -4.2594  -16.9001   17.7082 H   0  0  0  0  0  0  0  0  0  0  0  0
  1  2  2  0
  2  3  1  0
  3  4  1  0
  4  5  1  0
  5  6  1  0
  6  7  1  0
  7  8  2  0
  8  9  1  0
  9 10  1  0
 10 11  2  0
 11 12  1  0
 12 13  2  0
 13 14  1  0
 14 15  2  0
  2 16  1  0
 16 17  1  0
 17 18  1  0
 18 19  1  0
 19 20  1  0
 20 21  2  0
 21 22  1  0
 22 23  2  0
 15  7  1  0
 23 19  1  0
 14  9  1  0
  3 24  1  0
  3 25  1  0
  4 26  1  0
  4 27  1  0
  6 28  1  0
  6 29  1  0
  8 30  1  0
 10 31  1  0
 11 32  1  0
 12 33  1  0
 13 34  1  0
 16 35  1  0
 17 36  1  0
 17 37  1  0
 18 38  1  0
 18 39  1  0
 20 40  1  0
 21 41  1  0
 23 42  1  0
M  END
>  <Energy>  (704) 
376.82612138244292

>  <compound_id>  (704) 
46126

>  <target_id>  (704) 
1

>  <reference_id>  (704) 
8

>  <inspiration_ids>  (704) 
[101, 8]

>  <energy_score>  (704) 
314.66979596875535

>  <distance_score>  (704) 
12.8630893430934

>  <path>  (704) 
/opt/xchem-fragalysis-2/maxwin/BulkDock/SCRATCH/511024/C46126-P8/C46126-P8.minimised.mol

>  <scratch_subdir>  (704) 
/opt/xchem-fragalysis-2/maxwin/BulkDock/SCRATCH/511024/C46126-P8

>  <fragmenstein_runtime>  (704) 
34.51578950881958

>  <fragmenstein_outcome>  (704) 
too moved

>  <fragmenstein_mode>  (704) 
expansion

>  <fragmenstein_error>  (704) 


$$$$
C46127-P101
     RDKit          3D

 44 47  0  0  0  0  0  0  0  0999 V2000
   -1.1447   -7.0457   21.1778 O   0  0  0  0  0  0  0  0  0  0  0  0
   -1.3449   -7.6242   20.1487 C   0  0  0  0  0  0  0  0  0  0  0  0
   -0.8669   -7.3670   18.8231 N   0  0  0  0  0  0  0  0  0  0  0  0
   -0.0682   -6.2691   18.2900 C   0  0  0  0  0  0  0  0  0  0  0  0
    1.4216   -6.3105   18.5113 C   0  0  0  0  0  0  0  0  0  0  0  0
    2.3473   -7.2701   18.1446 C   0  0  0  0  0  0  0  0  0  0  0  0
    3.5450   -6.8609   18.6679 N   0  0  0  0  0  0  0  0  0  0  0  0
    4.7505   -7.5466   18.7359 C   0  0  0  0  0  0  0  0  0  0  0  0
    5.7456   -7.0246   19.4648 C   0  0  0  0  0  0  0  0  0  0  0  0
    5.5473   -5.7406   20.1194 C   0  0  0  0  0  0  0  0  0  0  0  0
    4.3931   -5.0596   20.0024 C   0  0  0  0  0  0  0  0  0  0  0  0
    3.3241   -5.6250   19.2596 C   0  0  0  0  0  0  0  0  0  0  0  0
    2.0812   -5.2312   19.0900 N   0  0  0  0  0  0  0  0  0  0  0  0
   -2.3350   -8.7625   20.1703 C   0  0  0  0  0  0  0  0  0  0  0  0
   -2.9600   -9.2799   21.2954 C   0  0  0  0  0  0  0  0  0  0  0  0
   -3.9373  -10.1218   20.8438 N   0  0  0  0  0  0  0  0  0  0  0  0
   -3.9510  -10.0546   19.4761 C   0  0  0  0  0  0  0  0  0  0  0  0
   -5.0626  -10.6188   18.6471 C   0  0  0  0  0  0  0  0  0  0  0  0
   -6.3135   -9.7328   18.7327 C   0  0  0  0  0  0  0  0  0  0  0  0
   -7.4282  -10.2782   17.8429 C   0  0  0  0  0  0  0  0  0  0  0  0
   -6.9896  -10.4230   16.4587 N   0  0  0  0  0  0  0  0  0  0  0  0
   -5.8200  -11.2906   16.3381 C   0  0  0  0  0  0  0  0  0  0  0  0
   -4.6530  -10.7767   17.1768 C   0  0  0  0  0  0  0  0  0  0  0  0
   -2.9369   -9.3263   19.0445 N   0  0  0  0  0  0  0  0  0  0  0  0
   -1.3101   -8.0173   18.1805 H   0  0  0  0  0  0  0  0  0  0  0  0
   -0.4639   -5.3509   18.7389 H   0  0  0  0  0  0  0  0  0  0  0  0
   -0.2661   -6.2267   17.2135 H   0  0  0  0  0  0  0  0  0  0  0  0
    2.2261   -8.2287   17.6621 H   0  0  0  0  0  0  0  0  0  0  0  0
    4.7967   -8.5198   18.2655 H   0  0  0  0  0  0  0  0  0  0  0  0
    6.6476   -7.5945   19.6294 H   0  0  0  0  0  0  0  0  0  0  0  0
    6.3335   -5.3280   20.7362 H   0  0  0  0  0  0  0  0  0  0  0  0
    4.2356   -4.1082   20.4961 H   0  0  0  0  0  0  0  0  0  0  0  0
   -2.8291   -9.0415   22.3392 H   0  0  0  0  0  0  0  0  0  0  0  0
   -4.5861  -10.6375   21.4290 H   0  0  0  0  0  0  0  0  0  0  0  0
   -5.3229  -11.6022   19.0508 H   0  0  0  0  0  0  0  0  0  0  0  0
   -6.0716   -8.7041   18.4320 H   0  0  0  0  0  0  0  0  0  0  0  0
   -6.6724   -9.6781   19.7681 H   0  0  0  0  0  0  0  0  0  0  0  0
   -7.7811  -11.2427   18.2280 H   0  0  0  0  0  0  0  0  0  0  0  0
   -8.2805   -9.5907   17.8748 H   0  0  0  0  0  0  0  0  0  0  0  0
   -7.7510  -10.7903   15.8884 H   0  0  0  0  0  0  0  0  0  0  0  0
   -5.5155  -11.3301   15.2865 H   0  0  0  0  0  0  0  0  0  0  0  0
   -6.0809  -12.3139   16.6338 H   0  0  0  0  0  0  0  0  0  0  0  0
   -3.8031  -11.4642   17.0879 H   0  0  0  0  0  0  0  0  0  0  0  0
   -4.3149   -9.8140   16.7691 H   0  0  0  0  0  0  0  0  0  0  0  0
  1  2  2  0
  2  3  1  0
  3  4  1  0
  4  5  1  0
  5  6  2  0
  6  7  1  0
  7  8  1  0
  8  9  2  0
  9 10  1  0
 10 11  2  0
 11 12  1  0
 12 13  2  0
  2 14  1  0
 14 15  2  0
 15 16  1  0
 16 17  1  0
 17 18  1  0
 18 19  1  0
 19 20  1  0
 20 21  1  0
 21 22  1  0
 22 23  1  0
 17 24  2  0
 13  5  1  0
 24 14  1  0
 12  7  1  0
 23 18  1  0
  3 25  1  0
  4 26  1  0
  4 27  1  0
  6 28  1  0
  8 29  1  0
  9 30  1  0
 10 31  1  0
 11 32  1  0
 15 33  1  0
 16 34  1  0
 18 35  1  0
 19 36  1  0
 19 37  1  0
 20 38  1  0
 20 39  1  0
 21 40  1  0
 22 41  1  0
 22 42  1  0
 23 43  1  0
 23 44  1  0
M  END
>  <Energy>  (705) 
37.739854715218812

>  <compound_id>  (705) 
46127

>  <target_id>  (705) 
1

>  <reference_id>  (705) 
101

>  <inspiration_ids>  (705) 
[101, 8]

>  <energy_score>  (705) 
-39.738613684619

>  <distance_score>  (705) 
15.977222465349524

>  <path>  (705) 
/opt/xchem-fragalysis-2/maxwin/BulkDock/SCRATCH/511024/C46127-P101/C46127-P101.minimised.mol

>  <scratch_subdir>  (705) 
/opt/xchem-fragalysis-2/maxwin/BulkDock/SCRATCH/511024/C46127-P101

>  <fragmenstein_runtime>  (705) 
33.76584339141846

>  <fragmenstein_outcome>  (705) 
too moved

>  <fragmenstein_mode>  (705) 
expansion

>  <fragmenstein_error>  (705) 


$$$$
C46127-P8
     RDKit          3D

 44 47  0  0  0  0  0  0  0  0999 V2000
   -0.5510  -18.0057   25.4760 O   0  0  0  0  0  0  0  0  0  0  0  0
   -1.5721  -17.3249   25.5356 C   0  0  0  0  0  0  0  0  0  0  0  0
   -1.7675  -15.4328   24.6292 N   0  0  0  0  0  0  0  0  0  0  0  0
   -0.3726  -14.1025   23.5789 C   0  0  0  0  0  0  0  0  0  0  0  0
    0.4383  -12.1155   22.9096 C   0  0  0  0  0  0  0  0  0  0  0  0
    2.2168  -11.7696   23.1711 C   0  0  0  0  0  0  0  0  0  0  0  0
    3.0226  -10.2348   22.3740 N   0  0  0  0  0  0  0  0  0  0  0  0
    4.2486   -9.5641   22.1918 C   0  0  0  0  0  0  0  0  0  0  0  0
    4.2546   -8.4562   21.4202 C   0  0  0  0  0  0  0  0  0  0  0  0
    3.0445   -7.9099   20.7783 C   0  0  0  0  0  0  0  0  0  0  0  0
    1.7937   -8.4364   20.8006 C   0  0  0  0  0  0  0  0  0  0  0  0
    1.5205   -9.6693   21.4910 C   0  0  0  0  0  0  0  0  0  0  0  0
    0.2867  -10.6399   21.8729 N   0  0  0  0  0  0  0  0  0  0  0  0
   -2.4557  -17.9303   26.4211 C   0  0  0  0  0  0  0  0  0  0  0  0
   -2.7098  -17.3874   27.7205 C   0  0  0  0  0  0  0  0  0  0  0  0
   -3.1193  -18.4178   28.5526 N   0  0  0  0  0  0  0  0  0  0  0  0
   -2.7766  -19.5988   27.9522 C   0  0  0  0  0  0  0  0  0  0  0  0
   -2.8973  -20.9423   28.5877 C   0  0  0  0  0  0  0  0  0  0  0  0
   -1.6323  -21.2756   29.3833 C   0  0  0  0  0  0  0  0  0  0  0  0
   -1.7044  -22.6887   29.9638 C   0  0  0  0  0  0  0  0  0  0  0  0
   -2.2294  -23.7091   29.0522 N   0  0  0  0  0  0  0  0  0  0  0  0
   -2.2859  -23.2468   27.6661 C   0  0  0  0  0  0  0  0  0  0  0  0
   -3.1979  -22.0310   27.5336 C   0  0  0  0  0  0  0  0  0  0  0  0
   -2.2748  -19.3440   26.7664 N   0  0  0  0  0  0  0  0  0  0  0  0
   -2.6419  -15.0298   24.8716 H   0  0  0  0  0  0  0  0  0  0  0  0
   -0.4736  -14.4888   22.5574 H   0  0  0  0  0  0  0  0  0  0  0  0
    0.5226  -14.2806   24.1465 H   0  0  0  0  0  0  0  0  0  0  0  0
    3.0052  -12.4047   23.5419 H   0  0  0  0  0  0  0  0  0  0  0  0
    5.1334   -9.9810   22.6431 H   0  0  0  0  0  0  0  0  0  0  0  0
    5.1826   -7.9231   21.2343 H   0  0  0  0  0  0  0  0  0  0  0  0
    3.1946   -6.9868   20.2230 H   0  0  0  0  0  0  0  0  0  0  0  0
    0.9643   -7.9709   20.2839 H   0  0  0  0  0  0  0  0  0  0  0  0
   -2.5888  -16.3958   28.1270 H   0  0  0  0  0  0  0  0  0  0  0  0
   -3.4494  -18.3213   29.5020 H   0  0  0  0  0  0  0  0  0  0  0  0
   -3.7340  -20.9027   29.2924 H   0  0  0  0  0  0  0  0  0  0  0  0
   -1.4892  -20.5541   30.1976 H   0  0  0  0  0  0  0  0  0  0  0  0
   -0.7459  -21.1869   28.7400 H   0  0  0  0  0  0  0  0  0  0  0  0
   -0.7021  -22.9807   30.2989 H   0  0  0  0  0  0  0  0  0  0  0  0
   -2.3410  -22.6828   30.8562 H   0  0  0  0  0  0  0  0  0  0  0  0
   -1.6345  -24.5369   29.1001 H   0  0  0  0  0  0  0  0  0  0  0  0
   -2.6736  -24.0546   27.0368 H   0  0  0  0  0  0  0  0  0  0  0  0
   -1.2786  -23.0214   27.2948 H   0  0  0  0  0  0  0  0  0  0  0  0
   -3.1175  -21.6568   26.5060 H   0  0  0  0  0  0  0  0  0  0  0  0
   -4.2432  -22.3458   27.6336 H   0  0  0  0  0  0  0  0  0  0  0  0
  1  2  2  0
  2  3  1  0
  3  4  1  0
  4  5  1  0
  5  6  2  0
  6  7  1  0
  7  8  1  0
  8  9  2  0
  9 10  1  0
 10 11  2  0
 11 12  1  0
 12 13  2  0
  2 14  1  0
 14 15  2  0
 15 16  1  0
 16 17  1  0
 17 18  1  0
 18 19  1  0
 19 20  1  0
 20 21  1  0
 21 22  1  0
 22 23  1  0
 17 24  2  0
 13  5  1  0
 24 14  1  0
 12  7  1  0
 23 18  1  0
  3 25  1  0
  4 26  1  0
  4 27  1  0
  6 28  1  0
  8 29  1  0
  9 30  1  0
 10 31  1  0
 11 32  1  0
 15 33  1  0
 16 34  1  0
 18 35  1  0
 19 36  1  0
 19 37  1  0
 20 38  1  0
 20 39  1  0
 21 40  1  0
 22 41  1  0
 22 42  1  0
 23 43  1  0
 23 44  1  0
M  END
>  <Energy>  (706) 
996.36251011746924

>  <compound_id>  (706) 
46127

>  <target_id>  (706) 
1

>  <reference_id>  (706) 
8

>  <inspiration_ids>  (706) 
[101, 8]

>  <energy_score>  (706) 
918.8840417176318

>  <distance_score>  (706) 
14.741915557125854

>  <path>  (706) 
/opt/xchem-fragalysis-2/maxwin/BulkDock/SCRATCH/511024/C46127-P8/C46127-P8.minimised.mol

>  <scratch_subdir>  (706) 
/opt/xchem-fragalysis-2/maxwin/BulkDock/SCRATCH/511024/C46127-P8

>  <fragmenstein_runtime>  (706) 
31.942020654678345

>  <fragmenstein_outcome>  (706) 
too moved

>  <fragmenstein_mode>  (706) 
expansion

>  <fragmenstein_error>  (706) 


$$$$
C46132-P101
     RDKit          3D

 36 39  0  0  0  0  0  0  0  0999 V2000
    8.3021  -17.5332   21.4453 O   0  0  0  0  0  0  0  0  0  0  0  0
    7.6580  -17.2511   20.4759 C   0  0  0  0  0  0  0  0  0  0  0  0
    7.5999  -16.0256   19.7067 N   0  0  0  0  0  0  0  0  0  0  0  0
    8.2340  -14.7184   19.9309 C   0  0  0  0  0  0  0  0  0  0  0  0
    8.7603  -13.8498   18.8125 C   0  0  0  0  0  0  0  0  0  0  0  0
    8.1084  -13.2171   17.7683 C   0  0  0  0  0  0  0  0  0  0  0  0
    9.0624  -12.4868   17.0952 N   0  0  0  0  0  0  0  0  0  0  0  0
    8.9668  -11.8007   15.8907 C   0  0  0  0  0  0  0  0  0  0  0  0
   10.0810  -11.2902   15.3456 C   0  0  0  0  0  0  0  0  0  0  0  0
   11.3370  -11.4120   16.0534 C   0  0  0  0  0  0  0  0  0  0  0  0
   11.4150  -12.0358   17.2430 C   0  0  0  0  0  0  0  0  0  0  0  0
   10.2488  -12.6295   17.8003 C   0  0  0  0  0  0  0  0  0  0  0  0
   10.0767  -13.3918   18.8595 N   0  0  0  0  0  0  0  0  0  0  0  0
    6.6690  -18.3285   20.0555 C   0  0  0  0  0  0  0  0  0  0  0  0
    6.2309  -19.3510   20.9036 C   0  0  0  0  0  0  0  0  0  0  0  0
    5.2978  -20.0753   20.2169 N   0  0  0  0  0  0  0  0  0  0  0  0
    5.2480  -19.5451   18.9586 C   0  0  0  0  0  0  0  0  0  0  0  0
    4.4104  -20.1387   17.7917 C   0  0  0  0  0  0  0  0  0  0  0  0
    4.9099  -21.3819   17.1035 C   0  0  0  0  0  0  0  0  0  0  0  0
    4.9579  -20.0614   16.3913 C   0  0  0  0  0  0  0  0  0  0  0  0
    5.9609  -18.4323   18.8683 N   0  0  0  0  0  0  0  0  0  0  0  0
    7.0030  -16.1711   18.8965 H   0  0  0  0  0  0  0  0  0  0  0  0
    7.4802  -14.1269   20.4638 H   0  0  0  0  0  0  0  0  0  0  0  0
    9.0428  -14.8915   20.6511 H   0  0  0  0  0  0  0  0  0  0  0  0
    7.0820  -13.2545   17.4336 H   0  0  0  0  0  0  0  0  0  0  0  0
    8.0024  -11.7676   15.4004 H   0  0  0  0  0  0  0  0  0  0  0  0
   10.0709  -10.8379   14.3639 H   0  0  0  0  0  0  0  0  0  0  0  0
   12.2260  -11.0142   15.5776 H   0  0  0  0  0  0  0  0  0  0  0  0
   12.3612  -12.1626   17.7568 H   0  0  0  0  0  0  0  0  0  0  0  0
    6.5123  -19.6002   21.9178 H   0  0  0  0  0  0  0  0  0  0  0  0
    4.8032  -20.8955   20.5411 H   0  0  0  0  0  0  0  0  0  0  0  0
    3.3370  -20.0266   17.9045 H   0  0  0  0  0  0  0  0  0  0  0  0
    5.8531  -21.8128   17.4195 H   0  0  0  0  0  0  0  0  0  0  0  0
    4.1762  -22.1082   16.7740 H   0  0  0  0  0  0  0  0  0  0  0  0
    4.2555  -19.8868   15.5852 H   0  0  0  0  0  0  0  0  0  0  0  0
    5.9254  -19.5935   16.2446 H   0  0  0  0  0  0  0  0  0  0  0  0
  1  2  2  0
  2  3  1  0
  3  4  1  0
  4  5  1  0
  5  6  2  0
  6  7  1  0
  7  8  1  0
  8  9  2  0
  9 10  1  0
 10 11  2  0
 11 12  1  0
 12 13  2  0
  2 14  1  0
 14 15  2  0
 15 16  1  0
 16 17  1  0
 17 18  1  0
 18 19  1  0
 19 20  1  0
 17 21  2  0
 13  5  1  0
 21 14  1  0
 12  7  1  0
 20 18  1  0
  3 22  1  0
  4 23  1  0
  4 24  1  0
  6 25  1  0
  8 26  1  0
  9 27  1  0
 10 28  1  0
 11 29  1  0
 15 30  1  0
 16 31  1  0
 18 32  1  0
 19 33  1  0
 19 34  1  0
 20 35  1  0
 20 36  1  0
M  END
>  <Energy>  (707) 
56.783523598694416

>  <compound_id>  (707) 
46132

>  <target_id>  (707) 
1

>  <reference_id>  (707) 
101

>  <inspiration_ids>  (707) 
[101, 8]

>  <energy_score>  (707) 
-26.000029939085437

>  <distance_score>  (707) 
16.310580184610746

>  <path>  (707) 
/opt/xchem-fragalysis-2/maxwin/BulkDock/SCRATCH/511024/C46132-P101/C46132-P101.minimised.mol

>  <scratch_subdir>  (707) 
/opt/xchem-fragalysis-2/maxwin/BulkDock/SCRATCH/511024/C46132-P101

>  <fragmenstein_runtime>  (707) 
24.087085008621216

>  <fragmenstein_outcome>  (707) 
too moved

>  <fragmenstein_mode>  (707) 
expansion

>  <fragmenstein_error>  (707) 


$$$$
C46132-P8
     RDKit          3D

 36 39  0  0  0  0  0  0  0  0999 V2000
    1.2141  -12.7751   14.2047 O   0  0  0  0  0  0  0  0  0  0  0  0
    0.8017  -11.9943   15.0109 C   0  0  0  0  0  0  0  0  0  0  0  0
    1.3379  -10.7236   15.4517 N   0  0  0  0  0  0  0  0  0  0  0  0
    2.4915   -9.9568   14.9833 C   0  0  0  0  0  0  0  0  0  0  0  0
    3.2059   -9.1242   16.0247 C   0  0  0  0  0  0  0  0  0  0  0  0
    4.2556   -8.2254   15.8625 C   0  0  0  0  0  0  0  0  0  0  0  0
    4.5201   -7.7125   17.1109 N   0  0  0  0  0  0  0  0  0  0  0  0
    5.4189   -6.7348   17.5224 C   0  0  0  0  0  0  0  0  0  0  0  0
    5.5227   -6.4336   18.8262 C   0  0  0  0  0  0  0  0  0  0  0  0
    4.6899   -7.1337   19.7772 C   0  0  0  0  0  0  0  0  0  0  0  0
    3.7960   -8.0523   19.3704 C   0  0  0  0  0  0  0  0  0  0  0  0
    3.6770   -8.3698   17.9891 C   0  0  0  0  0  0  0  0  0  0  0  0
    2.8732   -9.1964   17.3563 N   0  0  0  0  0  0  0  0  0  0  0  0
   -0.5228  -12.3937   15.6583 C   0  0  0  0  0  0  0  0  0  0  0  0
   -1.3504  -11.7315   16.5529 C   0  0  0  0  0  0  0  0  0  0  0  0
   -2.4650  -12.5205   16.7194 N   0  0  0  0  0  0  0  0  0  0  0  0
   -2.3171  -13.6311   15.9412 C   0  0  0  0  0  0  0  0  0  0  0  0
   -3.3780  -14.7293   15.6733 C   0  0  0  0  0  0  0  0  0  0  0  0
   -3.9570  -14.8290   14.2854 C   0  0  0  0  0  0  0  0  0  0  0  0
   -4.8139  -14.3511   15.4203 C   0  0  0  0  0  0  0  0  0  0  0  0
   -1.1458  -13.6196   15.3523 N   0  0  0  0  0  0  0  0  0  0  0  0
    0.6824  -10.2918   16.0886 H   0  0  0  0  0  0  0  0  0  0  0  0
    2.1216   -9.2977   14.1903 H   0  0  0  0  0  0  0  0  0  0  0  0
    3.1954  -10.6618   14.5284 H   0  0  0  0  0  0  0  0  0  0  0  0
    4.8068   -7.9241   14.9857 H   0  0  0  0  0  0  0  0  0  0  0  0
    5.9931   -6.2498   16.7563 H   0  0  0  0  0  0  0  0  0  0  0  0
    6.1758   -5.6669   19.2117 H   0  0  0  0  0  0  0  0  0  0  0  0
    4.7833   -6.8881   20.8302 H   0  0  0  0  0  0  0  0  0  0  0  0
    3.1472   -8.5687   20.0721 H   0  0  0  0  0  0  0  0  0  0  0  0
   -1.2839  -10.7671   17.0375 H   0  0  0  0  0  0  0  0  0  0  0  0
   -3.2959  -12.2505   17.2203 H   0  0  0  0  0  0  0  0  0  0  0  0
   -3.1728  -15.6728   16.1675 H   0  0  0  0  0  0  0  0  0  0  0  0
   -3.6275  -14.1091   13.5439 H   0  0  0  0  0  0  0  0  0  0  0  0
   -4.1325  -15.8213   13.8867 H   0  0  0  0  0  0  0  0  0  0  0  0
   -5.0974  -13.3056   15.4201 H   0  0  0  0  0  0  0  0  0  0  0  0
   -5.5834  -15.0203   15.7875 H   0  0  0  0  0  0  0  0  0  0  0  0
  1  2  2  0
  2  3  1  0
  3  4  1  0
  4  5  1  0
  5  6  2  0
  6  7  1  0
  7  8  1  0
  8  9  2  0
  9 10  1  0
 10 11  2  0
 11 12  1  0
 12 13  2  0
  2 14  1  0
 14 15  2  0
 15 16  1  0
 16 17  1  0
 17 18  1  0
 18 19  1  0
 19 20  1  0
 17 21  2  0
 13  5  1  0
 21 14  1  0
 12  7  1  0
 20 18  1  0
  3 22  1  0
  4 23  1  0
  4 24  1  0
  6 25  1  0
  8 26  1  0
  9 27  1  0
 10 28  1  0
 11 29  1  0
 15 30  1  0
 16 31  1  0
 18 32  1  0
 19 33  1  0
 19 34  1  0
 20 35  1  0
 20 36  1  0
M  END
>  <Energy>  (708) 
58.21566107211077

>  <compound_id>  (708) 
46132

>  <target_id>  (708) 
1

>  <reference_id>  (708) 
8

>  <inspiration_ids>  (708) 
[101, 8]

>  <energy_score>  (708) 
-24.567892465663988

>  <distance_score>  (708) 
16.17611119080513

>  <path>  (708) 
/opt/xchem-fragalysis-2/maxwin/BulkDock/SCRATCH/511024/C46132-P8/C46132-P8.minimised.mol

>  <scratch_subdir>  (708) 
/opt/xchem-fragalysis-2/maxwin/BulkDock/SCRATCH/511024/C46132-P8

>  <fragmenstein_runtime>  (708) 
25.130962371826172

>  <fragmenstein_outcome>  (708) 
too moved

>  <fragmenstein_mode>  (708) 
expansion

>  <fragmenstein_error>  (708) 


$$$$
C46135-P101
     RDKit          3D

 32 34  0  0  0  0  0  0  0  0999 V2000
   -2.4121  -17.3920   29.0744 C   0  0  0  0  0  0  0  0  0  0  0  0
   -2.6113  -18.5838   28.2183 C   0  0  0  0  0  0  0  0  0  0  0  0
   -2.6329  -19.8559   28.7438 N   0  0  0  0  0  0  0  0  0  0  0  0
   -2.7826  -20.7496   27.7301 C   0  0  0  0  0  0  0  0  0  0  0  0
   -2.6807  -20.1461   26.5763 N   0  0  0  0  0  0  0  0  0  0  0  0
   -2.6093  -18.7393   26.8211 C   0  0  0  0  0  0  0  0  0  0  0  0
   -1.8340  -17.8030   25.9690 C   0  0  0  0  0  0  0  0  0  0  0  0
   -0.6912  -18.0793   26.0698 O   0  0  0  0  0  0  0  0  0  0  0  0
   -2.2234  -16.1723   24.9192 N   0  0  0  0  0  0  0  0  0  0  0  0
   -0.9887  -14.7998   24.1206 C   0  0  0  0  0  0  0  0  0  0  0  0
    0.9419  -14.1006   23.9142 C   0  0  0  0  0  0  0  0  0  0  0  0
    2.6129  -14.3144   23.3879 C   0  0  0  0  0  0  0  0  0  0  0  0
    3.3072  -12.9385   22.5880 N   0  0  0  0  0  0  0  0  0  0  0  0
    4.3039  -12.6126   21.2929 C   0  0  0  0  0  0  0  0  0  0  0  0
    5.0712  -11.4227   21.2400 C   0  0  0  0  0  0  0  0  0  0  0  0
    4.8865  -10.5335   22.3842 C   0  0  0  0  0  0  0  0  0  0  0  0
    4.0894  -10.8840   23.4344 C   0  0  0  0  0  0  0  0  0  0  0  0
    3.0611  -12.0443   23.5208 C   0  0  0  0  0  0  0  0  0  0  0  0
    1.8050  -12.4952   24.0197 N   0  0  0  0  0  0  0  0  0  0  0  0
   -1.3843  -17.3588   29.4497 H   0  0  0  0  0  0  0  0  0  0  0  0
   -2.6004  -16.4685   28.5208 H   0  0  0  0  0  0  0  0  0  0  0  0
   -3.0932  -17.4132   29.9311 H   0  0  0  0  0  0  0  0  0  0  0  0
   -2.5782  -20.0856   29.7262 H   0  0  0  0  0  0  0  0  0  0  0  0
   -2.8979  -21.8132   27.8849 H   0  0  0  0  0  0  0  0  0  0  0  0
   -3.2061  -15.9895   24.9684 H   0  0  0  0  0  0  0  0  0  0  0  0
   -1.2905  -14.0315   24.8593 H   0  0  0  0  0  0  0  0  0  0  0  0
   -1.1891  -14.7933   23.0536 H   0  0  0  0  0  0  0  0  0  0  0  0
    3.2384  -15.1655   23.2257 H   0  0  0  0  0  0  0  0  0  0  0  0
    4.3543  -13.2793   20.4723 H   0  0  0  0  0  0  0  0  0  0  0  0
    5.7454  -11.1809   20.4264 H   0  0  0  0  0  0  0  0  0  0  0  0
    5.5831   -9.7045   22.4693 H   0  0  0  0  0  0  0  0  0  0  0  0
    4.3844  -10.3259   24.3095 H   0  0  0  0  0  0  0  0  0  0  0  0
  1  2  1  0
  2  3  1  0
  3  4  1  0
  4  5  2  0
  5  6  1  0
  6  7  1  0
  7  8  2  0
  7  9  1  0
  9 10  1  0
 10 11  1  0
 11 12  2  0
 12 13  1  0
 13 14  1  0
 14 15  2  0
 15 16  1  0
 16 17  2  0
 17 18  1  0
 18 19  2  0
  6  2  2  0
 19 11  1  0
 18 13  1  0
  1 20  1  0
  1 21  1  0
  1 22  1  0
  3 23  1  0
  4 24  1  0
  9 25  1  0
 10 26  1  0
 10 27  1  0
 12 28  1  0
 14 29  1  0
 15 30  1  0
 16 31  1  0
 17 32  1  0
M  END
>  <Energy>  (709) 
695.28671461444264

>  <compound_id>  (709) 
46135

>  <target_id>  (709) 
1

>  <reference_id>  (709) 
101

>  <inspiration_ids>  (709) 
[101, 8]

>  <energy_score>  (709) 
625.9810294724434

>  <distance_score>  (709) 
15.428135953272848

>  <path>  (709) 
/opt/xchem-fragalysis-2/maxwin/BulkDock/SCRATCH/511024/C46135-P101/C46135-P101.minimised.mol

>  <scratch_subdir>  (709) 
/opt/xchem-fragalysis-2/maxwin/BulkDock/SCRATCH/511024/C46135-P101

>  <fragmenstein_runtime>  (709) 
13.226447343826294

>  <fragmenstein_outcome>  (709) 
too moved

>  <fragmenstein_mode>  (709) 
expansion

>  <fragmenstein_error>  (709) 


$$$$
C46135-P8
     RDKit          3D

 32 34  0  0  0  0  0  0  0  0999 V2000
    6.1685  -11.5205   28.7428 C   0  0  0  0  0  0  0  0  0  0  0  0
    6.5303  -12.2589   27.5069 C   0  0  0  0  0  0  0  0  0  0  0  0
    6.3116  -13.6108   27.3674 N   0  0  0  0  0  0  0  0  0  0  0  0
    6.8334  -13.9811   26.1666 C   0  0  0  0  0  0  0  0  0  0  0  0
    7.3011  -12.9422   25.4967 N   0  0  0  0  0  0  0  0  0  0  0  0
    7.0893  -11.8186   26.2974 C   0  0  0  0  0  0  0  0  0  0  0  0
    7.2553  -10.3614   25.8573 C   0  0  0  0  0  0  0  0  0  0  0  0
    6.8094   -9.5439   26.6098 O   0  0  0  0  0  0  0  0  0  0  0  0
    7.8439  -10.2118   24.5463 N   0  0  0  0  0  0  0  0  0  0  0  0
    7.9895   -9.0275   23.6843 C   0  0  0  0  0  0  0  0  0  0  0  0
    9.3141   -8.3348   23.3833 C   0  0  0  0  0  0  0  0  0  0  0  0
   10.5972   -8.8063   23.1629 C   0  0  0  0  0  0  0  0  0  0  0  0
   11.3574   -7.7313   22.7362 N   0  0  0  0  0  0  0  0  0  0  0  0
   12.6990   -7.6715   22.3537 C   0  0  0  0  0  0  0  0  0  0  0  0
   13.2156   -6.5029   21.9310 C   0  0  0  0  0  0  0  0  0  0  0  0
   12.3583   -5.3309   21.8778 C   0  0  0  0  0  0  0  0  0  0  0  0
   11.0718   -5.3892   22.2719 C   0  0  0  0  0  0  0  0  0  0  0  0
   10.5193   -6.6262   22.7207 C   0  0  0  0  0  0  0  0  0  0  0  0
    9.2936   -6.9594   23.0824 N   0  0  0  0  0  0  0  0  0  0  0  0
    5.7654  -12.1930   29.5071 H   0  0  0  0  0  0  0  0  0  0  0  0
    7.0525  -11.0293   29.1619 H   0  0  0  0  0  0  0  0  0  0  0  0
    5.4143  -10.7550   28.5395 H   0  0  0  0  0  0  0  0  0  0  0  0
    5.9027  -14.2271   28.0565 H   0  0  0  0  0  0  0  0  0  0  0  0
    6.8446  -15.0075   25.8266 H   0  0  0  0  0  0  0  0  0  0  0  0
    8.0375  -11.1330   24.1637 H   0  0  0  0  0  0  0  0  0  0  0  0
    7.3215   -8.2691   24.1113 H   0  0  0  0  0  0  0  0  0  0  0  0
    7.5561   -9.3193   22.7199 H   0  0  0  0  0  0  0  0  0  0  0  0
   11.0192   -9.7981   23.2329 H   0  0  0  0  0  0  0  0  0  0  0  0
   13.2751   -8.5859   22.4157 H   0  0  0  0  0  0  0  0  0  0  0  0
   14.2540   -6.4073   21.6316 H   0  0  0  0  0  0  0  0  0  0  0  0
   12.7845   -4.3943   21.5281 H   0  0  0  0  0  0  0  0  0  0  0  0
   10.4392   -4.5114   22.2468 H   0  0  0  0  0  0  0  0  0  0  0  0
  1  2  1  0
  2  3  1  0
  3  4  1  0
  4  5  2  0
  5  6  1  0
  6  7  1  0
  7  8  2  0
  7  9  1  0
  9 10  1  0
 10 11  1  0
 11 12  2  0
 12 13  1  0
 13 14  1  0
 14 15  2  0
 15 16  1  0
 16 17  2  0
 17 18  1  0
 18 19  2  0
  6  2  2  0
 19 11  1  0
 18 13  1  0
  1 20  1  0
  1 21  1  0
  1 22  1  0
  3 23  1  0
  4 24  1  0
  9 25  1  0
 10 26  1  0
 10 27  1  0
 12 28  1  0
 14 29  1  0
 15 30  1  0
 16 31  1  0
 17 32  1  0
M  END
>  <Energy>  (710) 
51.990031668384361

>  <compound_id>  (710) 
46135

>  <target_id>  (710) 
1

>  <reference_id>  (710) 
8

>  <inspiration_ids>  (710) 
[101, 8]

>  <energy_score>  (710) 
-17.315653473608734

>  <distance_score>  (710) 
16.09876297552484

>  <path>  (710) 
/opt/xchem-fragalysis-2/maxwin/BulkDock/SCRATCH/511024/C46135-P8/C46135-P8.minimised.mol

>  <scratch_subdir>  (710) 
/opt/xchem-fragalysis-2/maxwin/BulkDock/SCRATCH/511024/C46135-P8

>  <fragmenstein_runtime>  (710) 
22.02681279182434

>  <fragmenstein_outcome>  (710) 
too moved

>  <fragmenstein_mode>  (710) 
expansion

>  <fragmenstein_error>  (710) 


$$$$
C46137-P101
     RDKit          3D

 26 28  0  0  0  0  0  0  0  0999 V2000
    1.4181  -13.6943   13.7604 O   0  0  0  0  0  0  0  0  0  0  0  0
    0.9308  -12.7437   14.3014 C   0  0  0  0  0  0  0  0  0  0  0  0
   -0.3657  -12.5704   14.9190 N   0  0  0  0  0  0  0  0  0  0  0  0
   -1.3876  -13.4735   15.1480 C   0  0  0  0  0  0  0  0  0  0  0  0
   -1.4136  -14.7684   14.8940 N   0  0  0  0  0  0  0  0  0  0  0  0
   -2.6556  -15.2390   15.2618 C   0  0  0  0  0  0  0  0  0  0  0  0
   -3.4216  -14.2111   15.7394 C   0  0  0  0  0  0  0  0  0  0  0  0
   -2.5823  -13.1232   15.7511 N   0  0  0  0  0  0  0  0  0  0  0  0
    1.8128  -11.5209   14.4587 C   0  0  0  0  0  0  0  0  0  0  0  0
    3.1306  -11.4120   14.0230 C   0  0  0  0  0  0  0  0  0  0  0  0
    3.6278  -10.2360   14.5185 N   0  0  0  0  0  0  0  0  0  0  0  0
    4.8968   -9.6854   14.3878 C   0  0  0  0  0  0  0  0  0  0  0  0
    5.1636   -8.5337   15.0162 C   0  0  0  0  0  0  0  0  0  0  0  0
    4.1531   -7.9206   15.8568 C   0  0  0  0  0  0  0  0  0  0  0  0
    2.9118   -8.4370   15.9381 C   0  0  0  0  0  0  0  0  0  0  0  0
    2.5950   -9.6412   15.2370 C   0  0  0  0  0  0  0  0  0  0  0  0
    1.4812  -10.3607   15.1669 N   0  0  0  0  0  0  0  0  0  0  0  0
   -0.4691  -11.6047   15.2040 H   0  0  0  0  0  0  0  0  0  0  0  0
   -2.9251  -16.2778   15.1227 H   0  0  0  0  0  0  0  0  0  0  0  0
   -4.4491  -14.1558   16.0650 H   0  0  0  0  0  0  0  0  0  0  0  0
   -2.8221  -12.1932   16.0595 H   0  0  0  0  0  0  0  0  0  0  0  0
    3.7448  -12.1003   13.4584 H   0  0  0  0  0  0  0  0  0  0  0  0
    5.6132  -10.2020   13.7594 H   0  0  0  0  0  0  0  0  0  0  0  0
    6.1094   -8.0515   14.8702 H   0  0  0  0  0  0  0  0  0  0  0  0
    4.4126   -7.0313   16.4210 H   0  0  0  0  0  0  0  0  0  0  0  0
    2.1481   -7.9881   16.5641 H   0  0  0  0  0  0  0  0  0  0  0  0
  1  2  2  0
  2  3  1  0
  3  4  1  0
  4  5  2  0
  5  6  1  0
  6  7  2  0
  7  8  1  0
  2  9  1  0
  9 10  2  0
 10 11  1  0
 11 12  1  0
 12 13  2  0
 13 14  1  0
 14 15  2  0
 15 16  1  0
 16 17  2  0
  8  4  1  0
 17  9  1  0
 16 11  1  0
  3 18  1  0
  6 19  1  0
  7 20  1  0
  8 21  1  0
 10 22  1  0
 12 23  1  0
 13 24  1  0
 14 25  1  0
 15 26  1  0
M  END
>  <Energy>  (711) 
25.289594197633058

>  <compound_id>  (711) 
46137

>  <target_id>  (711) 
1

>  <reference_id>  (711) 
101

>  <inspiration_ids>  (711) 
[101, 8]

>  <energy_score>  (711) 
-38.79394186376703

>  <distance_score>  (711) 
16.179929685907094

>  <path>  (711) 
/opt/xchem-fragalysis-2/maxwin/BulkDock/SCRATCH/511024/C46137-P101/C46137-P101.minimised.mol

>  <scratch_subdir>  (711) 
/opt/xchem-fragalysis-2/maxwin/BulkDock/SCRATCH/511024/C46137-P101

>  <fragmenstein_runtime>  (711) 
13.403487920761108

>  <fragmenstein_outcome>  (711) 
too moved

>  <fragmenstein_mode>  (711) 
expansion

>  <fragmenstein_error>  (711) 


$$$$
C46137-P8
     RDKit          3D

 26 28  0  0  0  0  0  0  0  0999 V2000
    0.0777   -6.4224   21.9016 O   0  0  0  0  0  0  0  0  0  0  0  0
    0.4718   -7.2502   21.1473 C   0  0  0  0  0  0  0  0  0  0  0  0
   -0.1396   -8.6989   20.7757 N   0  0  0  0  0  0  0  0  0  0  0  0
   -1.4190   -9.3530   21.2036 C   0  0  0  0  0  0  0  0  0  0  0  0
   -1.8822  -10.5540   20.7320 N   0  0  0  0  0  0  0  0  0  0  0  0
   -3.2363  -10.6128   20.9265 C   0  0  0  0  0  0  0  0  0  0  0  0
   -3.5750   -9.7148   21.9040 C   0  0  0  0  0  0  0  0  0  0  0  0
   -2.4033   -9.0058   22.1411 N   0  0  0  0  0  0  0  0  0  0  0  0
    1.9475   -6.7879   20.3522 C   0  0  0  0  0  0  0  0  0  0  0  0
    3.1962   -6.4281   20.9494 C   0  0  0  0  0  0  0  0  0  0  0  0
    4.1281   -6.1458   19.9513 N   0  0  0  0  0  0  0  0  0  0  0  0
    5.5069   -6.2832   20.0021 C   0  0  0  0  0  0  0  0  0  0  0  0
    6.1205   -6.4939   18.8358 C   0  0  0  0  0  0  0  0  0  0  0  0
    5.4744   -6.2682   17.5762 C   0  0  0  0  0  0  0  0  0  0  0  0
    4.1669   -5.9720   17.5476 C   0  0  0  0  0  0  0  0  0  0  0  0
    3.4204   -6.0687   18.7632 C   0  0  0  0  0  0  0  0  0  0  0  0
    2.1378   -6.3636   18.9730 N   0  0  0  0  0  0  0  0  0  0  0  0
    0.4061   -9.1186   20.0274 H   0  0  0  0  0  0  0  0  0  0  0  0
   -3.8567  -11.2987   20.3673 H   0  0  0  0  0  0  0  0  0  0  0  0
   -4.5079   -9.4507   22.3808 H   0  0  0  0  0  0  0  0  0  0  0  0
   -2.3353   -8.1613   22.6876 H   0  0  0  0  0  0  0  0  0  0  0  0
    3.4973   -6.5008   21.9837 H   0  0  0  0  0  0  0  0  0  0  0  0
    5.9258   -6.5413   20.9650 H   0  0  0  0  0  0  0  0  0  0  0  0
    6.9798   -7.0992   18.8905 H   0  0  0  0  0  0  0  0  0  0  0  0
    6.0312   -6.3397   16.6594 H   0  0  0  0  0  0  0  0  0  0  0  0
    3.6157   -5.8231   16.6275 H   0  0  0  0  0  0  0  0  0  0  0  0
  1  2  2  0
  2  3  1  0
  3  4  1  0
  4  5  2  0
  5  6  1  0
  6  7  2  0
  7  8  1  0
  2  9  1  0
  9 10  2  0
 10 11  1  0
 11 12  1  0
 12 13  2  0
 13 14  1  0
 14 15  2  0
 15 16  1  0
 16 17  2  0
  8  4  1  0
 17  9  1  0
 16 11  1  0
  3 18  1  0
  6 19  1  0
  7 20  1  0
  8 21  1  0
 10 22  1  0
 12 23  1  0
 13 24  1  0
 14 25  1  0
 15 26  1  0
M  END
>  <Energy>  (712) 
106.46500767743576

>  <compound_id>  (712) 
46137

>  <target_id>  (712) 
1

>  <reference_id>  (712) 
8

>  <inspiration_ids>  (712) 
[101, 8]

>  <energy_score>  (712) 
41.54123975956048

>  <distance_score>  (712) 
14.952048888757442

>  <path>  (712) 
/opt/xchem-fragalysis-2/maxwin/BulkDock/SCRATCH/511024/C46137-P8/C46137-P8.minimised.mol

>  <scratch_subdir>  (712) 
/opt/xchem-fragalysis-2/maxwin/BulkDock/SCRATCH/511024/C46137-P8

>  <fragmenstein_runtime>  (712) 
9.781629085540771

>  <fragmenstein_outcome>  (712) 
too moved

>  <fragmenstein_mode>  (712) 
expansion

>  <fragmenstein_error>  (712) 


$$$$
C46138-P101
     RDKit          3D

 32 34  0  0  0  0  0  0  0  0999 V2000
    3.7193  -14.7917   23.5647 O   0  0  0  0  0  0  0  0  0  0  0  0
    3.1986  -13.7079   23.7114 C   0  0  0  0  0  0  0  0  0  0  0  0
    1.5992  -13.3561   24.0943 N   0  0  0  0  0  0  0  0  0  0  0  0
    0.1805  -14.4483   24.3650 C   0  0  0  0  0  0  0  0  0  0  0  0
   -0.8011  -13.8809   23.8755 N   0  0  0  0  0  0  0  0  0  0  0  0
   -1.8068  -13.3252   25.2943 C   0  0  0  0  0  0  0  0  0  0  0  0
   -1.9609  -14.3286   26.0465 C   0  0  0  0  0  0  0  0  0  0  0  0
   -1.5854  -14.9808   24.7922 N   0  0  0  0  0  0  0  0  0  0  0  0
   -2.6323  -16.1714   25.1892 C   0  0  0  0  0  0  0  0  0  0  0  0
   -2.5145  -16.9864   26.9675 C   0  0  0  0  0  0  0  0  0  0  0  0
   -1.9411  -18.2232   26.7906 F   0  0  0  0  0  0  0  0  0  0  0  0
   -3.6759  -17.2284   27.6410 F   0  0  0  0  0  0  0  0  0  0  0  0
    4.2631  -12.5501   23.4256 C   0  0  0  0  0  0  0  0  0  0  0  0
    4.2321  -11.1834   23.1708 C   0  0  0  0  0  0  0  0  0  0  0  0
    5.3949  -10.5371   22.8723 N   0  0  0  0  0  0  0  0  0  0  0  0
    6.2400  -11.5071   22.7402 C   0  0  0  0  0  0  0  0  0  0  0  0
    7.5805  -11.4321   22.2619 C   0  0  0  0  0  0  0  0  0  0  0  0
    8.3300  -12.5422   22.2259 C   0  0  0  0  0  0  0  0  0  0  0  0
    7.7842  -13.8002   22.6974 C   0  0  0  0  0  0  0  0  0  0  0  0
    6.5051  -13.8728   23.1219 C   0  0  0  0  0  0  0  0  0  0  0  0
    5.6796  -12.7409   23.1176 N   0  0  0  0  0  0  0  0  0  0  0  0
    1.4932  -12.3558   24.2281 H   0  0  0  0  0  0  0  0  0  0  0  0
   -2.4777  -12.4602   25.3437 H   0  0  0  0  0  0  0  0  0  0  0  0
   -2.2381  -14.6317   27.0430 H   0  0  0  0  0  0  0  0  0  0  0  0
   -2.3307  -17.1216   24.8827 H   0  0  0  0  0  0  0  0  0  0  0  0
   -3.5268  -15.7735   24.7484 H   0  0  0  0  0  0  0  0  0  0  0  0
   -1.9110  -16.4343   27.6902 H   0  0  0  0  0  0  0  0  0  0  0  0
    3.4043  -10.5565   23.0551 H   0  0  0  0  0  0  0  0  0  0  0  0
    7.9586  -10.4742   21.9234 H   0  0  0  0  0  0  0  0  0  0  0  0
    9.3504  -12.5219   21.8576 H   0  0  0  0  0  0  0  0  0  0  0  0
    8.4285  -14.6736   22.6984 H   0  0  0  0  0  0  0  0  0  0  0  0
    6.0759  -14.7956   23.4848 H   0  0  0  0  0  0  0  0  0  0  0  0
  1  2  2  0
  2  3  1  0
  3  4  1  0
  4  5  2  0
  5  6  1  0
  6  7  2  0
  7  8  1  0
  8  9  1  0
  9 10  1  0
 10 11  1  0
 10 12  1  0
  2 13  1  0
 13 14  2  0
 14 15  1  0
 15 16  2  0
 16 17  1  0
 17 18  2  0
 18 19  1  0
 19 20  2  0
 20 21  1  0
  8  4  1  0
 21 13  1  0
 21 16  1  0
  3 22  1  0
  6 23  1  0
  7 24  1  0
  9 25  1  0
  9 26  1  0
 10 27  1  0
 14 28  1  0
 17 29  1  0
 18 30  1  0
 19 31  1  0
 20 32  1  0
M  END
>  <Energy>  (713) 
544.01659268612798

>  <compound_id>  (713) 
46138

>  <target_id>  (713) 
1

>  <reference_id>  (713) 
101

>  <inspiration_ids>  (713) 
[101, 8]

>  <energy_score>  (713) 
530.9599169046166

>  <distance_score>  (713) 
15.171050360743683

>  <path>  (713) 
/opt/xchem-fragalysis-2/maxwin/BulkDock/SCRATCH/511024/C46138-P101/C46138-P101.minimised.mol

>  <scratch_subdir>  (713) 
/opt/xchem-fragalysis-2/maxwin/BulkDock/SCRATCH/511024/C46138-P101

>  <fragmenstein_runtime>  (713) 
11.705565690994263

>  <fragmenstein_outcome>  (713) 
too moved

>  <fragmenstein_mode>  (713) 
expansion

>  <fragmenstein_error>  (713) 


$$$$
C46138-P8
     RDKit          3D

 32 34  0  0  0  0  0  0  0  0999 V2000
    6.9506  -14.2405   22.1935 O   0  0  0  0  0  0  0  0  0  0  0  0
    6.8643  -13.7166   23.2657 C   0  0  0  0  0  0  0  0  0  0  0  0
    6.2824  -14.2000   24.5162 N   0  0  0  0  0  0  0  0  0  0  0  0
    5.7429  -15.4378   24.8514 C   0  0  0  0  0  0  0  0  0  0  0  0
    5.5386  -16.4799   24.0645 N   0  0  0  0  0  0  0  0  0  0  0  0
    5.0413  -17.5089   24.8384 C   0  0  0  0  0  0  0  0  0  0  0  0
    4.9074  -17.0977   26.1394 C   0  0  0  0  0  0  0  0  0  0  0  0
    5.3038  -15.7773   26.1305 N   0  0  0  0  0  0  0  0  0  0  0  0
    5.2553  -14.9094   27.2905 C   0  0  0  0  0  0  0  0  0  0  0  0
    6.6268  -14.4854   27.7653 C   0  0  0  0  0  0  0  0  0  0  0  0
    6.5234  -13.9630   29.0139 F   0  0  0  0  0  0  0  0  0  0  0  0
    7.0764  -13.4750   26.9716 F   0  0  0  0  0  0  0  0  0  0  0  0
    7.3892  -12.3070   23.3565 C   0  0  0  0  0  0  0  0  0  0  0  0
    7.3479  -11.3772   24.3939 C   0  0  0  0  0  0  0  0  0  0  0  0
    7.9468  -10.1832   24.0959 N   0  0  0  0  0  0  0  0  0  0  0  0
    8.3772  -10.3237   22.8699 C   0  0  0  0  0  0  0  0  0  0  0  0
    9.0872   -9.3989   22.0544 C   0  0  0  0  0  0  0  0  0  0  0  0
    9.4125   -9.7326   20.7972 C   0  0  0  0  0  0  0  0  0  0  0  0
    9.0621  -11.0223   20.2438 C   0  0  0  0  0  0  0  0  0  0  0  0
    8.4056  -11.9079   21.0164 C   0  0  0  0  0  0  0  0  0  0  0  0
    8.0581  -11.5783   22.3371 N   0  0  0  0  0  0  0  0  0  0  0  0
    6.3113  -13.4610   25.2006 H   0  0  0  0  0  0  0  0  0  0  0  0
    4.8044  -18.4743   24.4082 H   0  0  0  0  0  0  0  0  0  0  0  0
    4.5459  -17.6007   27.0257 H   0  0  0  0  0  0  0  0  0  0  0  0
    4.6493  -14.0387   27.0166 H   0  0  0  0  0  0  0  0  0  0  0  0
    4.7275  -15.4404   28.0903 H   0  0  0  0  0  0  0  0  0  0  0  0
    7.3651  -15.2922   27.7754 H   0  0  0  0  0  0  0  0  0  0  0  0
    6.9105  -11.5003   25.3761 H   0  0  0  0  0  0  0  0  0  0  0  0
    9.3539   -8.4379   22.4752 H   0  0  0  0  0  0  0  0  0  0  0  0
    9.9425   -9.0303   20.1777 H   0  0  0  0  0  0  0  0  0  0  0  0
    9.3333  -11.2516   19.2184 H   0  0  0  0  0  0  0  0  0  0  0  0
    8.1207  -12.8867   20.6512 H   0  0  0  0  0  0  0  0  0  0  0  0
  1  2  2  0
  2  3  1  0
  3  4  1  0
  4  5  2  0
  5  6  1  0
  6  7  2  0
  7  8  1  0
  8  9  1  0
  9 10  1  0
 10 11  1  0
 10 12  1  0
  2 13  1  0
 13 14  2  0
 14 15  1  0
 15 16  2  0
 16 17  1  0
 17 18  2  0
 18 19  1  0
 19 20  2  0
 20 21  1  0
  8  4  1  0
 21 13  1  0
 21 16  1  0
  3 22  1  0
  6 23  1  0
  7 24  1  0
  9 25  1  0
  9 26  1  0
 10 27  1  0
 14 28  1  0
 17 29  1  0
 18 30  1  0
 19 31  1  0
 20 32  1  0
M  END
>  <Energy>  (714) 
-12.207405648220394

>  <compound_id>  (714) 
46138

>  <target_id>  (714) 
1

>  <reference_id>  (714) 
8

>  <inspiration_ids>  (714) 
[101, 8]

>  <energy_score>  (714) 
-25.264081429724285

>  <distance_score>  (714) 
15.522508376472798

>  <path>  (714) 
/opt/xchem-fragalysis-2/maxwin/BulkDock/SCRATCH/511024/C46138-P8/C46138-P8.minimised.mol

>  <scratch_subdir>  (714) 
/opt/xchem-fragalysis-2/maxwin/BulkDock/SCRATCH/511024/C46138-P8

>  <fragmenstein_runtime>  (714) 
38.350738525390625

>  <fragmenstein_outcome>  (714) 
too moved

>  <fragmenstein_mode>  (714) 
expansion

>  <fragmenstein_error>  (714) 


$$$$
C46139-P101
     RDKit          3D

 32 34  0  0  0  0  0  0  0  0999 V2000
    7.5307  -11.0399   25.3346 O   0  0  0  0  0  0  0  0  0  0  0  0
    6.7652  -10.6975   24.4852 C   0  0  0  0  0  0  0  0  0  0  0  0
    5.2163  -11.1946   24.1832 N   0  0  0  0  0  0  0  0  0  0  0  0
    4.2830  -12.1800   24.9926 C   0  0  0  0  0  0  0  0  0  0  0  0
    2.9300  -12.3321   24.8404 N   0  0  0  0  0  0  0  0  0  0  0  0
    2.3822  -12.9571   25.9699 C   0  0  0  0  0  0  0  0  0  0  0  0
    3.3785  -13.5289   26.6931 C   0  0  0  0  0  0  0  0  0  0  0  0
    4.5368  -13.1674   26.0014 N   0  0  0  0  0  0  0  0  0  0  0  0
    5.8675  -13.6149   26.3694 C   0  0  0  0  0  0  0  0  0  0  0  0
    6.4215  -12.8896   27.5767 C   0  0  0  0  0  0  0  0  0  0  0  0
    5.7212  -13.2469   28.6879 F   0  0  0  0  0  0  0  0  0  0  0  0
    7.6982  -13.2974   27.7992 F   0  0  0  0  0  0  0  0  0  0  0  0
    7.4975   -9.4173   23.4865 C   0  0  0  0  0  0  0  0  0  0  0  0
    7.9278   -8.1305   23.9566 C   0  0  0  0  0  0  0  0  0  0  0  0
    9.0192   -7.6261   23.2191 N   0  0  0  0  0  0  0  0  0  0  0  0
    9.7579   -6.4158   23.3529 C   0  0  0  0  0  0  0  0  0  0  0  0
   10.8025   -6.1567   22.5446 C   0  0  0  0  0  0  0  0  0  0  0  0
   11.2015   -7.1954   21.6275 C   0  0  0  0  0  0  0  0  0  0  0  0
   10.4644   -8.3206   21.4463 C   0  0  0  0  0  0  0  0  0  0  0  0
    9.2855   -8.5731   22.2415 C   0  0  0  0  0  0  0  0  0  0  0  0
    8.4006   -9.5830   22.3194 N   0  0  0  0  0  0  0  0  0  0  0  0
    4.8184  -10.6399   23.4316 H   0  0  0  0  0  0  0  0  0  0  0  0
    1.3331  -13.0043   26.1555 H   0  0  0  0  0  0  0  0  0  0  0  0
    3.4137  -14.1167   27.6007 H   0  0  0  0  0  0  0  0  0  0  0  0
    6.5219  -13.5032   25.4998 H   0  0  0  0  0  0  0  0  0  0  0  0
    5.7945  -14.6892   26.5748 H   0  0  0  0  0  0  0  0  0  0  0  0
    6.3986  -11.8007   27.4927 H   0  0  0  0  0  0  0  0  0  0  0  0
    7.6394   -7.6145   24.8607 H   0  0  0  0  0  0  0  0  0  0  0  0
    9.4258   -5.7304   24.1231 H   0  0  0  0  0  0  0  0  0  0  0  0
   11.3839   -5.2426   22.6122 H   0  0  0  0  0  0  0  0  0  0  0  0
   12.1496   -7.0257   21.1345 H   0  0  0  0  0  0  0  0  0  0  0  0
   10.7592   -9.1161   20.7750 H   0  0  0  0  0  0  0  0  0  0  0  0
  1  2  2  0
  2  3  1  0
  3  4  1  0
  4  5  2  0
  5  6  1  0
  6  7  2  0
  7  8  1  0
  8  9  1  0
  9 10  1  0
 10 11  1  0
 10 12  1  0
  2 13  1  0
 13 14  2  0
 14 15  1  0
 15 16  1  0
 16 17  2  0
 17 18  1  0
 18 19  2  0
 19 20  1  0
 20 21  2  0
  8  4  1  0
 21 13  1  0
 20 15  1  0
  3 22  1  0
  6 23  1  0
  7 24  1  0
  9 25  1  0
  9 26  1  0
 10 27  1  0
 14 28  1  0
 16 29  1  0
 17 30  1  0
 18 31  1  0
 19 32  1  0
M  END
>  <Energy>  (715) 
129.2499666013849

>  <compound_id>  (715) 
46139

>  <target_id>  (715) 
1

>  <reference_id>  (715) 
101

>  <inspiration_ids>  (715) 
[101, 8]

>  <energy_score>  (715) 
70.84547558514464

>  <distance_score>  (715) 
14.711914739869407

>  <path>  (715) 
/opt/xchem-fragalysis-2/maxwin/BulkDock/SCRATCH/511024/C46139-P101/C46139-P101.minimised.mol

>  <scratch_subdir>  (715) 
/opt/xchem-fragalysis-2/maxwin/BulkDock/SCRATCH/511024/C46139-P101

>  <fragmenstein_runtime>  (715) 
9.689478397369385

>  <fragmenstein_outcome>  (715) 
too moved

>  <fragmenstein_mode>  (715) 
expansion

>  <fragmenstein_error>  (715) 


$$$$
C46139-P8
     RDKit          3D

 32 34  0  0  0  0  0  0  0  0999 V2000
    6.8340  -11.0918   23.7838 O   0  0  0  0  0  0  0  0  0  0  0  0
    5.8109  -10.6822   23.3469 C   0  0  0  0  0  0  0  0  0  0  0  0
    4.2977  -11.1853   23.5914 N   0  0  0  0  0  0  0  0  0  0  0  0
    3.7645  -12.2345   24.5056 C   0  0  0  0  0  0  0  0  0  0  0  0
    2.4476  -12.4381   24.6918 N   0  0  0  0  0  0  0  0  0  0  0  0
    2.2432  -12.9011   25.9886 C   0  0  0  0  0  0  0  0  0  0  0  0
    3.4002  -13.4504   26.4358 C   0  0  0  0  0  0  0  0  0  0  0  0
    4.3109  -13.1646   25.4151 N   0  0  0  0  0  0  0  0  0  0  0  0
    5.7259  -13.4810   25.4803 C   0  0  0  0  0  0  0  0  0  0  0  0
    6.4789  -12.6331   26.4893 C   0  0  0  0  0  0  0  0  0  0  0  0
    6.0550  -11.3471   26.4924 F   0  0  0  0  0  0  0  0  0  0  0  0
    6.2535  -13.1142   27.7427 F   0  0  0  0  0  0  0  0  0  0  0  0
    5.9919   -9.3653   22.3131 C   0  0  0  0  0  0  0  0  0  0  0  0
    6.4349   -9.3662   20.9710 C   0  0  0  0  0  0  0  0  0  0  0  0
    6.3196   -8.0721   20.4746 N   0  0  0  0  0  0  0  0  0  0  0  0
    6.1585   -7.6347   19.1623 C   0  0  0  0  0  0  0  0  0  0  0  0
    5.9363   -6.3386   18.8966 C   0  0  0  0  0  0  0  0  0  0  0  0
    5.8348   -5.4223   20.0209 C   0  0  0  0  0  0  0  0  0  0  0  0
    5.9585   -5.8431   21.2932 C   0  0  0  0  0  0  0  0  0  0  0  0
    6.1572   -7.2386   21.5659 C   0  0  0  0  0  0  0  0  0  0  0  0
    6.0795   -7.9621   22.6784 N   0  0  0  0  0  0  0  0  0  0  0  0
    3.6625  -10.6607   22.9956 H   0  0  0  0  0  0  0  0  0  0  0  0
    1.3098  -12.8137   26.4870 H   0  0  0  0  0  0  0  0  0  0  0  0
    3.7012  -13.9329   27.3558 H   0  0  0  0  0  0  0  0  0  0  0  0
    5.8041  -14.5440   25.7345 H   0  0  0  0  0  0  0  0  0  0  0  0
    6.1300  -13.3583   24.4723 H   0  0  0  0  0  0  0  0  0  0  0  0
    7.5574  -12.6562   26.3119 H   0  0  0  0  0  0  0  0  0  0  0  0
    6.6375  -10.1944   20.3083 H   0  0  0  0  0  0  0  0  0  0  0  0
    6.0544   -8.4161   18.4313 H   0  0  0  0  0  0  0  0  0  0  0  0
    5.6755   -6.0190   17.8963 H   0  0  0  0  0  0  0  0  0  0  0  0
    5.5168   -4.3990   19.8868 H   0  0  0  0  0  0  0  0  0  0  0  0
    5.8030   -5.1752   22.1329 H   0  0  0  0  0  0  0  0  0  0  0  0
  1  2  2  0
  2  3  1  0
  3  4  1  0
  4  5  2  0
  5  6  1  0
  6  7  2  0
  7  8  1  0
  8  9  1  0
  9 10  1  0
 10 11  1  0
 10 12  1  0
  2 13  1  0
 13 14  2  0
 14 15  1  0
 15 16  1  0
 16 17  2  0
 17 18  1  0
 18 19  2  0
 19 20  1  0
 20 21  2  0
  8  4  1  0
 21 13  1  0
 20 15  1  0
  3 22  1  0
  6 23  1  0
  7 24  1  0
  9 25  1  0
  9 26  1  0
 10 27  1  0
 14 28  1  0
 16 29  1  0
 17 30  1  0
 18 31  1  0
 19 32  1  0
M  END
>  <Energy>  (716) 
97.517729552705816

>  <compound_id>  (716) 
46139

>  <target_id>  (716) 
1

>  <reference_id>  (716) 
8

>  <inspiration_ids>  (716) 
[101, 8]

>  <energy_score>  (716) 
39.113238536471556

>  <distance_score>  (716) 
14.83491200520893

>  <path>  (716) 
/opt/xchem-fragalysis-2/maxwin/BulkDock/SCRATCH/511024/C46139-P8/C46139-P8.minimised.mol

>  <scratch_subdir>  (716) 
/opt/xchem-fragalysis-2/maxwin/BulkDock/SCRATCH/511024/C46139-P8

>  <fragmenstein_runtime>  (716) 
17.438857078552246

>  <fragmenstein_outcome>  (716) 
too moved

>  <fragmenstein_mode>  (716) 
expansion

>  <fragmenstein_error>  (716) 


$$$$
C46140-P101
     RDKit          3D

 29 31  0  0  0  0  0  0  0  0999 V2000
   -2.7417   -7.4260   22.7418 C   0  0  0  0  0  0  0  0  0  0  0  0
   -2.8646   -8.5616   21.8622 N   0  0  0  0  0  0  0  0  0  0  0  0
   -4.0204   -9.2994   21.7570 C   0  0  0  0  0  0  0  0  0  0  0  0
   -3.8185  -10.1297   20.6867 C   0  0  0  0  0  0  0  0  0  0  0  0
   -2.5602   -9.9593   20.1898 N   0  0  0  0  0  0  0  0  0  0  0  0
   -1.9940   -8.9670   20.8658 C   0  0  0  0  0  0  0  0  0  0  0  0
   -0.7554   -8.4618   20.5193 N   0  0  0  0  0  0  0  0  0  0  0  0
    0.1196   -7.5462   21.2061 C   0  0  0  0  0  0  0  0  0  0  0  0
   -0.0372   -6.9240   22.2211 O   0  0  0  0  0  0  0  0  0  0  0  0
    1.3982   -7.2964   20.4445 C   0  0  0  0  0  0  0  0  0  0  0  0
    2.6104   -6.8839   20.9933 C   0  0  0  0  0  0  0  0  0  0  0  0
    3.5091   -6.8174   19.9607 N   0  0  0  0  0  0  0  0  0  0  0  0
    4.8803   -6.5815   19.9868 C   0  0  0  0  0  0  0  0  0  0  0  0
    5.5601   -6.6245   18.8324 C   0  0  0  0  0  0  0  0  0  0  0  0
    4.8568   -6.8639   17.5892 C   0  0  0  0  0  0  0  0  0  0  0  0
    3.5273   -7.0655   17.5706 C   0  0  0  0  0  0  0  0  0  0  0  0
    2.7991   -7.0824   18.7960 C   0  0  0  0  0  0  0  0  0  0  0  0
    1.5350   -7.3564   19.0567 N   0  0  0  0  0  0  0  0  0  0  0  0
   -2.4967   -6.5417   22.1497 H   0  0  0  0  0  0  0  0  0  0  0  0
   -1.9859   -7.6437   23.4963 H   0  0  0  0  0  0  0  0  0  0  0  0
   -3.6973   -7.2508   23.2452 H   0  0  0  0  0  0  0  0  0  0  0  0
   -4.8718   -9.1570   22.4071 H   0  0  0  0  0  0  0  0  0  0  0  0
   -4.5020  -10.8496   20.2594 H   0  0  0  0  0  0  0  0  0  0  0  0
   -0.2541   -8.8710   19.7253 H   0  0  0  0  0  0  0  0  0  0  0  0
    2.8927   -6.7037   22.0195 H   0  0  0  0  0  0  0  0  0  0  0  0
    5.3411   -6.4095   20.9499 H   0  0  0  0  0  0  0  0  0  0  0  0
    6.6203   -6.4897   18.8092 H   0  0  0  0  0  0  0  0  0  0  0  0
    5.4235   -6.8854   16.6683 H   0  0  0  0  0  0  0  0  0  0  0  0
    2.9878   -7.2555   16.6500 H   0  0  0  0  0  0  0  0  0  0  0  0
  1  2  1  0
  2  3  1  0
  3  4  2  0
  4  5  1  0
  5  6  2  0
  6  7  1  0
  7  8  1  0
  8  9  2  0
  8 10  1  0
 10 11  2  0
 11 12  1  0
 12 13  1  0
 13 14  2  0
 14 15  1  0
 15 16  2  0
 16 17  1  0
 17 18  2  0
  6  2  1  0
 18 10  1  0
 17 12  1  0
  1 19  1  0
  1 20  1  0
  1 21  1  0
  3 22  1  0
  4 23  1  0
  7 24  1  0
 11 25  1  0
 13 26  1  0
 14 27  1  0
 15 28  1  0
 16 29  1  0
M  END
>  <Energy>  (717) 
25.73266997048054

>  <compound_id>  (717) 
46140

>  <target_id>  (717) 
1

>  <reference_id>  (717) 
101

>  <inspiration_ids>  (717) 
[101, 8]

>  <energy_score>  (717) 
-45.61788637875259

>  <distance_score>  (717) 
15.435478520656648

>  <path>  (717) 
/opt/xchem-fragalysis-2/maxwin/BulkDock/SCRATCH/511024/C46140-P101/C46140-P101.minimised.mol

>  <scratch_subdir>  (717) 
/opt/xchem-fragalysis-2/maxwin/BulkDock/SCRATCH/511024/C46140-P101

>  <fragmenstein_runtime>  (717) 
12.543221950531006

>  <fragmenstein_outcome>  (717) 
too moved

>  <fragmenstein_mode>  (717) 
expansion

>  <fragmenstein_error>  (717) 


$$$$
C46140-P8
     RDKit          3D

 29 31  0  0  0  0  0  0  0  0999 V2000
   -2.4321  -10.4683   18.7939 C   0  0  0  0  0  0  0  0  0  0  0  0
   -2.6706  -10.1845   20.1884 N   0  0  0  0  0  0  0  0  0  0  0  0
   -3.9129  -10.4021   20.7597 C   0  0  0  0  0  0  0  0  0  0  0  0
   -3.8113   -9.8251   21.9969 C   0  0  0  0  0  0  0  0  0  0  0  0
   -2.4812   -9.5209   22.2508 N   0  0  0  0  0  0  0  0  0  0  0  0
   -1.8533   -9.3696   21.0529 C   0  0  0  0  0  0  0  0  0  0  0  0
   -0.5488   -8.6286   20.8299 N   0  0  0  0  0  0  0  0  0  0  0  0
    0.0453   -7.9095   19.4830 C   0  0  0  0  0  0  0  0  0  0  0  0
   -0.4555   -7.7473   18.4139 O   0  0  0  0  0  0  0  0  0  0  0  0
    1.6689   -7.3247   19.4685 C   0  0  0  0  0  0  0  0  0  0  0  0
    2.6363   -6.9025   20.4087 C   0  0  0  0  0  0  0  0  0  0  0  0
    3.8082   -6.4996   19.7504 N   0  0  0  0  0  0  0  0  0  0  0  0
    4.9848   -5.9680   20.2586 C   0  0  0  0  0  0  0  0  0  0  0  0
    5.9788   -5.7391   19.4064 C   0  0  0  0  0  0  0  0  0  0  0  0
    5.8714   -6.1840   18.0370 C   0  0  0  0  0  0  0  0  0  0  0  0
    4.6999   -6.5537   17.5186 C   0  0  0  0  0  0  0  0  0  0  0  0
    3.5963   -6.6874   18.3959 C   0  0  0  0  0  0  0  0  0  0  0  0
    2.3457   -7.0436   18.1831 N   0  0  0  0  0  0  0  0  0  0  0  0
   -1.9074  -11.4225   18.7246 H   0  0  0  0  0  0  0  0  0  0  0  0
   -3.3923  -10.5605   18.2765 H   0  0  0  0  0  0  0  0  0  0  0  0
   -1.8808   -9.6581   18.3273 H   0  0  0  0  0  0  0  0  0  0  0  0
   -4.7360  -10.8436   20.2184 H   0  0  0  0  0  0  0  0  0  0  0  0
   -4.5738   -9.6974   22.7558 H   0  0  0  0  0  0  0  0  0  0  0  0
    0.1709   -8.6689   21.5411 H   0  0  0  0  0  0  0  0  0  0  0  0
    2.5860   -6.8737   21.4864 H   0  0  0  0  0  0  0  0  0  0  0  0
    4.9858   -5.6697   21.2981 H   0  0  0  0  0  0  0  0  0  0  0  0
    6.7183   -5.0691   19.7744 H   0  0  0  0  0  0  0  0  0  0  0  0
    6.6852   -6.1304   17.3574 H   0  0  0  0  0  0  0  0  0  0  0  0
    4.5695   -6.8486   16.4856 H   0  0  0  0  0  0  0  0  0  0  0  0
  1  2  1  0
  2  3  1  0
  3  4  2  0
  4  5  1  0
  5  6  2  0
  6  7  1  0
  7  8  1  0
  8  9  2  0
  8 10  1  0
 10 11  2  0
 11 12  1  0
 12 13  1  0
 13 14  2  0
 14 15  1  0
 15 16  2  0
 16 17  1  0
 17 18  2  0
  6  2  1  0
 18 10  1  0
 17 12  1  0
  1 19  1  0
  1 20  1  0
  1 21  1  0
  3 22  1  0
  4 23  1  0
  7 24  1  0
 11 25  1  0
 13 26  1  0
 14 27  1  0
 15 28  1  0
 16 29  1  0
M  END
>  <Energy>  (718) 
119.09844873339583

>  <compound_id>  (718) 
46140

>  <target_id>  (718) 
1

>  <reference_id>  (718) 
8

>  <inspiration_ids>  (718) 
[101, 8]

>  <energy_score>  (718) 
46.487387476998265

>  <distance_score>  (718) 
15.008005777580625

>  <path>  (718) 
/opt/xchem-fragalysis-2/maxwin/BulkDock/SCRATCH/511024/C46140-P8/C46140-P8.minimised.mol

>  <scratch_subdir>  (718) 
/opt/xchem-fragalysis-2/maxwin/BulkDock/SCRATCH/511024/C46140-P8

>  <fragmenstein_runtime>  (718) 
6.330749988555908

>  <fragmenstein_outcome>  (718) 
too moved

>  <fragmenstein_mode>  (718) 
expansion

>  <fragmenstein_error>  (718) 


$$$$
C46141-P101
     RDKit          3D

 32 34  0  0  0  0  0  0  0  0999 V2000
    3.1977  -14.8150   22.9693 O   0  0  0  0  0  0  0  0  0  0  0  0
    3.0763  -14.5507   21.7589 C   0  0  0  0  0  0  0  0  0  0  0  0
    1.9545  -15.5077   20.5022 N   0  0  0  0  0  0  0  0  0  0  0  0
    0.8547  -17.1632   20.6927 C   0  0  0  0  0  0  0  0  0  0  0  0
    0.6934  -17.6453   19.1752 N   0  0  0  0  0  0  0  0  0  0  0  0
    1.7054  -19.0316   18.5699 C   0  0  0  0  0  0  0  0  0  0  0  0
    2.1420  -19.8649   19.7886 C   0  0  0  0  0  0  0  0  0  0  0  0
    1.2796  -19.0263   21.1782 N   0  0  0  0  0  0  0  0  0  0  0  0
    1.0299  -20.3717   22.2442 C   0  0  0  0  0  0  0  0  0  0  0  0
    2.3024  -20.8201   22.9776 C   0  0  0  0  0  0  0  0  0  0  0  0
    3.4537  -20.3782   22.4275 F   0  0  0  0  0  0  0  0  0  0  0  0
    2.3669  -22.1824   22.9427 F   0  0  0  0  0  0  0  0  0  0  0  0
    2.2977  -20.4916   24.2920 F   0  0  0  0  0  0  0  0  0  0  0  0
    4.2032  -13.2443   21.3063 C   0  0  0  0  0  0  0  0  0  0  0  0
    4.8065  -12.9321   20.0300 C   0  0  0  0  0  0  0  0  0  0  0  0
    5.7039  -11.9089   20.0396 N   0  0  0  0  0  0  0  0  0  0  0  0
    5.8244  -11.6064   21.3024 C   0  0  0  0  0  0  0  0  0  0  0  0
    6.6593  -10.6041   21.8767 C   0  0  0  0  0  0  0  0  0  0  0  0
    6.6473  -10.4170   23.2047 C   0  0  0  0  0  0  0  0  0  0  0  0
    5.7876  -11.2235   24.0539 C   0  0  0  0  0  0  0  0  0  0  0  0
    4.9819  -12.1615   23.5139 C   0  0  0  0  0  0  0  0  0  0  0  0
    4.9766  -12.3738   22.1352 N   0  0  0  0  0  0  0  0  0  0  0  0
    2.1052  -15.1453   19.5661 H   0  0  0  0  0  0  0  0  0  0  0  0
    1.7355  -19.1547   17.4932 H   0  0  0  0  0  0  0  0  0  0  0  0
    2.5623  -20.8215   20.0648 H   0  0  0  0  0  0  0  0  0  0  0  0
    0.7930  -21.1899   21.5528 H   0  0  0  0  0  0  0  0  0  0  0  0
    0.1490  -20.1100   22.8499 H   0  0  0  0  0  0  0  0  0  0  0  0
    4.5778  -13.3947   19.0755 H   0  0  0  0  0  0  0  0  0  0  0  0
    7.2871  -10.0135   21.2191 H   0  0  0  0  0  0  0  0  0  0  0  0
    7.2729   -9.6625   23.6694 H   0  0  0  0  0  0  0  0  0  0  0  0
    5.8053  -11.0469   25.1243 H   0  0  0  0  0  0  0  0  0  0  0  0
    4.3123  -12.7753   24.1039 H   0  0  0  0  0  0  0  0  0  0  0  0
  1  2  2  0
  2  3  1  0
  3  4  1  0
  4  5  2  0
  5  6  1  0
  6  7  2  0
  7  8  1  0
  8  9  1  0
  9 10  1  0
 10 11  1  0
 10 12  1  0
 10 13  1  0
  2 14  1  0
 14 15  2  0
 15 16  1  0
 16 17  2  0
 17 18  1  0
 18 19  2  0
 19 20  1  0
 20 21  2  0
 21 22  1  0
  8  4  1  0
 22 14  1  0
 22 17  1  0
  3 23  1  0
  6 24  1  0
  7 25  1  0
  9 26  1  0
  9 27  1  0
 15 28  1  0
 18 29  1  0
 19 30  1  0
 20 31  1  0
 21 32  1  0
M  END
>  <Energy>  (719) 
582.40697027129829

>  <compound_id>  (719) 
46141

>  <target_id>  (719) 
1

>  <reference_id>  (719) 
101

>  <inspiration_ids>  (719) 
[101, 8]

>  <energy_score>  (719) 
566.5955849004708

>  <distance_score>  (719) 
15.582369377465566

>  <path>  (719) 
/opt/xchem-fragalysis-2/maxwin/BulkDock/SCRATCH/511024/C46141-P101/C46141-P101.minimised.mol

>  <scratch_subdir>  (719) 
/opt/xchem-fragalysis-2/maxwin/BulkDock/SCRATCH/511024/C46141-P101

>  <fragmenstein_runtime>  (719) 
23.39881682395935

>  <fragmenstein_outcome>  (719) 
too moved

>  <fragmenstein_mode>  (719) 
expansion

>  <fragmenstein_error>  (719) 


$$$$
C46141-P8
     RDKit          3D

 32 34  0  0  0  0  0  0  0  0999 V2000
    2.4363  -14.7779   21.0599 O   0  0  0  0  0  0  0  0  0  0  0  0
    1.8479  -15.4145   20.2724 C   0  0  0  0  0  0  0  0  0  0  0  0
    0.3636  -16.4065   20.7217 N   0  0  0  0  0  0  0  0  0  0  0  0
   -0.4341  -16.6846   22.2924 C   0  0  0  0  0  0  0  0  0  0  0  0
   -0.1603  -18.4634   22.6139 N   0  0  0  0  0  0  0  0  0  0  0  0
    0.3936  -18.9030   24.4862 C   0  0  0  0  0  0  0  0  0  0  0  0
   -0.6780  -17.6605   25.4570 C   0  0  0  0  0  0  0  0  0  0  0  0
   -1.1362  -16.0246   24.2227 N   0  0  0  0  0  0  0  0  0  0  0  0
   -2.7028  -15.9940   25.2340 C   0  0  0  0  0  0  0  0  0  0  0  0
   -2.5693  -16.7582   27.0896 C   0  0  0  0  0  0  0  0  0  0  0  0
   -3.7382  -16.7776   27.8382 F   0  0  0  0  0  0  0  0  0  0  0  0
   -2.3271  -18.1037   27.1035 F   0  0  0  0  0  0  0  0  0  0  0  0
   -1.7395  -16.1058   27.9286 F   0  0  0  0  0  0  0  0  0  0  0  0
    2.5665  -15.1114   18.5566 C   0  0  0  0  0  0  0  0  0  0  0  0
    2.0479  -14.2771   17.5644 C   0  0  0  0  0  0  0  0  0  0  0  0
    2.8861  -13.5399   16.7754 N   0  0  0  0  0  0  0  0  0  0  0  0
    4.0662  -13.8507   17.2113 C   0  0  0  0  0  0  0  0  0  0  0  0
    5.3233  -13.2592   16.8760 C   0  0  0  0  0  0  0  0  0  0  0  0
    6.4615  -13.8903   17.2002 C   0  0  0  0  0  0  0  0  0  0  0  0
    6.4047  -15.1869   17.8437 C   0  0  0  0  0  0  0  0  0  0  0  0
    5.2170  -15.6926   18.2417 C   0  0  0  0  0  0  0  0  0  0  0  0
    4.0082  -14.9701   18.0593 N   0  0  0  0  0  0  0  0  0  0  0  0
    0.0673  -16.9385   19.9254 H   0  0  0  0  0  0  0  0  0  0  0  0
    0.6041  -19.9458   24.7139 H   0  0  0  0  0  0  0  0  0  0  0  0
   -0.6708  -17.6780   26.5549 H   0  0  0  0  0  0  0  0  0  0  0  0
   -2.5748  -17.0156   25.0600 H   0  0  0  0  0  0  0  0  0  0  0  0
   -2.3499  -14.9774   25.4240 H   0  0  0  0  0  0  0  0  0  0  0  0
    1.0479  -13.8987   17.5823 H   0  0  0  0  0  0  0  0  0  0  0  0
    5.3281  -12.3085   16.3555 H   0  0  0  0  0  0  0  0  0  0  0  0
    7.4308  -13.4674   16.9574 H   0  0  0  0  0  0  0  0  0  0  0  0
    7.3313  -15.7296   17.9978 H   0  0  0  0  0  0  0  0  0  0  0  0
    5.1508  -16.6494   18.7323 H   0  0  0  0  0  0  0  0  0  0  0  0
  1  2  2  0
  2  3  1  0
  3  4  1  0
  4  5  2  0
  5  6  1  0
  6  7  2  0
  7  8  1  0
  8  9  1  0
  9 10  1  0
 10 11  1  0
 10 12  1  0
 10 13  1  0
  2 14  1  0
 14 15  2  0
 15 16  1  0
 16 17  2  0
 17 18  1  0
 18 19  2  0
 19 20  1  0
 20 21  2  0
 21 22  1  0
  8  4  1  0
 22 14  1  0
 22 17  1  0
  3 23  1  0
  6 24  1  0
  7 25  1  0
  9 26  1  0
  9 27  1  0
 15 28  1  0
 18 29  1  0
 19 30  1  0
 20 31  1  0
 21 32  1  0
M  END
>  <Energy>  (720) 
1146.8782505072165

>  <compound_id>  (720) 
46141

>  <target_id>  (720) 
1

>  <reference_id>  (720) 
8

>  <inspiration_ids>  (720) 
[101, 8]

>  <energy_score>  (720) 
1131.066865136419

>  <distance_score>  (720) 
15.528520311349967

>  <path>  (720) 
/opt/xchem-fragalysis-2/maxwin/BulkDock/SCRATCH/511024/C46141-P8/C46141-P8.minimised.mol

>  <scratch_subdir>  (720) 
/opt/xchem-fragalysis-2/maxwin/BulkDock/SCRATCH/511024/C46141-P8

>  <fragmenstein_runtime>  (720) 
20.035677194595337

>  <fragmenstein_outcome>  (720) 
too moved

>  <fragmenstein_mode>  (720) 
expansion

>  <fragmenstein_error>  (720) 


$$$$
C63773-P146
     RDKit          3D

 56 59  0  0  0  0  0  0  0  0999 V2000
    3.2097   -7.7587   26.3739 O   0  0  0  0  0  0  0  0  0  0  0  0
    4.1391   -7.0953   26.0023 C   0  0  0  0  0  0  0  0  0  0  0  0
    4.8947   -7.1375   24.7779 N   0  0  0  0  0  0  0  0  0  0  0  0
    4.8334   -8.1168   23.5685 C   0  0  0  0  0  0  0  0  0  0  0  0
    4.7829   -9.6240   24.3973 C   0  0  0  0  0  0  0  0  0  0  0  0
    3.8454  -10.6466   23.8750 C   0  0  0  0  0  0  0  0  0  0  0  0
    2.6535  -10.8589   24.4265 C   0  0  0  0  0  0  0  0  0  0  0  0
    2.1323  -12.0308   24.0712 N   0  0  0  0  0  0  0  0  0  0  0  0
    3.1712  -12.5661   23.4255 C   0  0  0  0  0  0  0  0  0  0  0  0
    3.9822  -11.6242   22.9868 N   0  0  0  0  0  0  0  0  0  0  0  0
    6.4151   -7.2573   22.7892 C   0  0  0  0  0  0  0  0  0  0  0  0
    6.9570   -6.5180   23.6897 O   0  0  0  0  0  0  0  0  0  0  0  0
    7.2912   -6.9997   21.2591 N   0  0  0  0  0  0  0  0  0  0  0  0
    7.0620   -5.7900   19.9061 C   0  0  0  0  0  0  0  0  0  0  0  0
    9.0350   -5.0187   20.0975 C   0  0  0  0  0  0  0  0  0  0  0  0
   10.8046   -5.8163   20.6361 C   0  0  0  0  0  0  0  0  0  0  0  0
   12.0366   -5.1173   21.0860 C   0  0  0  0  0  0  0  0  0  0  0  0
   12.8264   -5.6200   22.2448 C   0  0  0  0  0  0  0  0  0  0  0  0
   12.5119   -6.8619   23.0185 C   0  0  0  0  0  0  0  0  0  0  0  0
   11.4843   -7.8558   22.4917 C   0  0  0  0  0  0  0  0  0  0  0  0
   10.7803   -7.3875   21.2110 C   0  0  0  0  0  0  0  0  0  0  0  0
    9.0851   -7.9439   20.3303 C   0  0  0  0  0  0  0  0  0  0  0  0
    4.7375   -6.0115   26.9333 C   0  0  0  0  0  0  0  0  0  0  0  0
    4.3087   -6.2170   28.4020 C   0  0  0  0  0  0  0  0  0  0  0  0
    3.0664   -5.4078   28.7577 C   0  0  0  0  0  0  0  0  0  0  0  0
    3.2962   -3.9060   28.5855 C   0  0  0  0  0  0  0  0  0  0  0  0
    4.3564   -3.5710   27.5372 C   0  0  0  0  0  0  0  0  0  0  0  0
    4.3908   -4.6047   26.4185 C   0  0  0  0  0  0  0  0  0  0  0  0
    5.5628   -6.3674   24.7717 H   0  0  0  0  0  0  0  0  0  0  0  0
    3.8440   -8.1069   23.2170 H   0  0  0  0  0  0  0  0  0  0  0  0
    5.7557  -10.0805   24.6409 H   0  0  0  0  0  0  0  0  0  0  0  0
    4.4350   -9.3873   25.3934 H   0  0  0  0  0  0  0  0  0  0  0  0
    2.3816  -10.2017   25.1722 H   0  0  0  0  0  0  0  0  0  0  0  0
    1.3017  -12.4780   24.4291 H   0  0  0  0  0  0  0  0  0  0  0  0
    3.3521  -13.6178   23.2656 H   0  0  0  0  0  0  0  0  0  0  0  0
    6.9861   -6.4447   19.0095 H   0  0  0  0  0  0  0  0  0  0  0  0
    6.4607   -4.8919   19.7408 H   0  0  0  0  0  0  0  0  0  0  0  0
    9.5366   -5.5931   19.3174 H   0  0  0  0  0  0  0  0  0  0  0  0
    8.9122   -4.0273   20.4723 H   0  0  0  0  0  0  0  0  0  0  0  0
   12.2844   -4.1109   20.7622 H   0  0  0  0  0  0  0  0  0  0  0  0
   13.6241   -4.9777   22.6242 H   0  0  0  0  0  0  0  0  0  0  0  0
   13.0625   -7.0835   23.9312 H   0  0  0  0  0  0  0  0  0  0  0  0
   11.2836   -8.7907   22.9990 H   0  0  0  0  0  0  0  0  0  0  0  0
    9.7559   -8.8113   20.6304 H   0  0  0  0  0  0  0  0  0  0  0  0
    9.1290   -8.4347   19.3694 H   0  0  0  0  0  0  0  0  0  0  0  0
    5.8286   -6.1443   26.9121 H   0  0  0  0  0  0  0  0  0  0  0  0
    4.1385   -7.2758   28.6260 H   0  0  0  0  0  0  0  0  0  0  0  0
    5.1300   -5.8991   29.0582 H   0  0  0  0  0  0  0  0  0  0  0  0
    2.7619   -5.6156   29.7898 H   0  0  0  0  0  0  0  0  0  0  0  0
    2.2321   -5.7236   28.1193 H   0  0  0  0  0  0  0  0  0  0  0  0
    2.3438   -3.4331   28.3164 H   0  0  0  0  0  0  0  0  0  0  0  0
    3.5963   -3.4631   29.5429 H   0  0  0  0  0  0  0  0  0  0  0  0
    4.1645   -2.5732   27.1265 H   0  0  0  0  0  0  0  0  0  0  0  0
    5.3428   -3.5258   28.0159 H   0  0  0  0  0  0  0  0  0  0  0  0
    5.1261   -4.2978   25.6662 H   0  0  0  0  0  0  0  0  0  0  0  0
    3.4147   -4.6121   25.9202 H   0  0  0  0  0  0  0  0  0  0  0  0
  1  2  2  0
  2  3  1  0
  3  4  1  0
  4  5  1  0
  5  6  1  0
  6  7  2  0
  7  8  1  0
  8  9  1  0
  9 10  2  0
  4 11  1  0
 11 12  2  0
 11 13  1  0
 13 14  1  0
 14 15  1  0
 15 16  1  0
 16 17  2  0
 17 18  1  0
 18 19  2  0
 19 20  1  0
 20 21  2  0
 21 22  1  0
  2 23  1  0
 23 24  1  0
 24 25  1  0
 25 26  1  0
 26 27  1  0
 27 28  1  0
 10  6  1  0
 22 13  1  0
 28 23  1  0
 21 16  1  0
  3 29  1  0
  4 30  1  0
  5 31  1  0
  5 32  1  0
  7 33  1  0
  8 34  1  0
  9 35  1  0
 14 36  1  0
 14 37  1  0
 15 38  1  0
 15 39  1  0
 17 40  1  0
 18 41  1  0
 19 42  1  0
 20 43  1  0
 22 44  1  0
 22 45  1  0
 23 46  1  0
 24 47  1  0
 24 48  1  0
 25 49  1  0
 25 50  1  0
 26 51  1  0
 26 52  1  0
 27 53  1  0
 27 54  1  0
 28 55  1  0
 28 56  1  0
M  END
>  <Energy>  (721) 
886.71026981605144

>  <compound_id>  (721) 
63773

>  <target_id>  (721) 
1

>  <reference_id>  (721) 
146

>  <inspiration_ids>  (721) 
[146, 64]

>  <energy_score>  (721) 
813.8836914224976

>  <distance_score>  (721) 
14.420894996794049

>  <path>  (721) 
/opt/xchem-fragalysis-2/maxwin/BulkDock/SCRATCH/511024/C63773-P146/C63773-P146.minimised.mol

>  <scratch_subdir>  (721) 
/opt/xchem-fragalysis-2/maxwin/BulkDock/SCRATCH/511024/C63773-P146

>  <fragmenstein_runtime>  (721) 
84.03336977958679

>  <fragmenstein_outcome>  (721) 
too moved

>  <fragmenstein_mode>  (721) 
expansion

>  <fragmenstein_error>  (721) 


$$$$
C63773-P64
     RDKit          3D

 56 59  0  0  0  0  0  0  0  0999 V2000
    4.2191  -12.4005   19.8638 O   0  0  0  0  0  0  0  0  0  0  0  0
    3.9271  -12.5447   18.6813 C   0  0  0  0  0  0  0  0  0  0  0  0
    3.2522  -11.0691   17.6105 N   0  0  0  0  0  0  0  0  0  0  0  0
    3.0262   -9.0614   18.0927 C   0  0  0  0  0  0  0  0  0  0  0  0
    1.5567   -8.6239   18.6449 C   0  0  0  0  0  0  0  0  0  0  0  0
    0.3748   -8.3817   19.7928 C   0  0  0  0  0  0  0  0  0  0  0  0
   -0.9595   -8.0804   19.4689 C   0  0  0  0  0  0  0  0  0  0  0  0
   -1.7114   -8.3975   20.5628 N   0  0  0  0  0  0  0  0  0  0  0  0
   -0.8435   -8.7499   21.5436 C   0  0  0  0  0  0  0  0  0  0  0  0
    0.4034   -8.7554   21.1291 N   0  0  0  0  0  0  0  0  0  0  0  0
    4.9677   -8.7137   18.1524 C   0  0  0  0  0  0  0  0  0  0  0  0
    5.5222   -9.8742   18.2945 O   0  0  0  0  0  0  0  0  0  0  0  0
    6.4349   -7.3311   17.7951 N   0  0  0  0  0  0  0  0  0  0  0  0
    7.2483   -6.7001   16.0735 C   0  0  0  0  0  0  0  0  0  0  0  0
    9.3204   -7.2653   15.5405 C   0  0  0  0  0  0  0  0  0  0  0  0
   10.6722   -6.4059   16.8922 C   0  0  0  0  0  0  0  0  0  0  0  0
   12.0451   -6.1171   16.2956 C   0  0  0  0  0  0  0  0  0  0  0  0
   12.7474   -4.9641   16.5485 C   0  0  0  0  0  0  0  0  0  0  0  0
   11.9980   -4.1633   17.2853 C   0  0  0  0  0  0  0  0  0  0  0  0
   10.8747   -4.9584   18.0986 C   0  0  0  0  0  0  0  0  0  0  0  0
    9.6980   -6.1860   18.7139 C   0  0  0  0  0  0  0  0  0  0  0  0
    7.4076   -6.3752   18.8826 C   0  0  0  0  0  0  0  0  0  0  0  0
    4.1804  -13.9898   18.3007 C   0  0  0  0  0  0  0  0  0  0  0  0
    5.7936  -13.8049   19.4824 C   0  0  0  0  0  0  0  0  0  0  0  0
    7.4607  -14.9854   19.7265 C   0  0  0  0  0  0  0  0  0  0  0  0
    6.6982  -16.8236   19.8465 C   0  0  0  0  0  0  0  0  0  0  0  0
    5.4173  -16.6848   19.1015 C   0  0  0  0  0  0  0  0  0  0  0  0
    4.3572  -15.4361   18.1616 C   0  0  0  0  0  0  0  0  0  0  0  0
    3.1551  -11.3728   16.6559 H   0  0  0  0  0  0  0  0  0  0  0  0
    2.8179   -8.6819   17.1020 H   0  0  0  0  0  0  0  0  0  0  0  0
    1.9132   -7.6368   18.8060 H   0  0  0  0  0  0  0  0  0  0  0  0
    0.9451   -8.6732   17.7417 H   0  0  0  0  0  0  0  0  0  0  0  0
   -1.4161   -7.8152   18.5276 H   0  0  0  0  0  0  0  0  0  0  0  0
   -2.7158   -8.3403   20.6376 H   0  0  0  0  0  0  0  0  0  0  0  0
   -1.1799   -8.9718   22.5314 H   0  0  0  0  0  0  0  0  0  0  0  0
    6.6244   -7.1583   15.3303 H   0  0  0  0  0  0  0  0  0  0  0  0
    7.1274   -5.6586   16.1315 H   0  0  0  0  0  0  0  0  0  0  0  0
    9.6561   -8.3467   15.3513 H   0  0  0  0  0  0  0  0  0  0  0  0
    8.7149   -7.0418   14.6497 H   0  0  0  0  0  0  0  0  0  0  0  0
   12.5208   -6.9939   15.8912 H   0  0  0  0  0  0  0  0  0  0  0  0
   13.7458   -4.7430   16.2172 H   0  0  0  0  0  0  0  0  0  0  0  0
   12.3785   -3.2255   17.6773 H   0  0  0  0  0  0  0  0  0  0  0  0
   11.7295   -5.1101   19.0295 H   0  0  0  0  0  0  0  0  0  0  0  0
    7.1934   -7.1750   19.6088 H   0  0  0  0  0  0  0  0  0  0  0  0
    6.7963   -5.4520   19.0707 H   0  0  0  0  0  0  0  0  0  0  0  0
    3.2221  -14.1767   18.7968 H   0  0  0  0  0  0  0  0  0  0  0  0
    6.0905  -12.7412   19.3667 H   0  0  0  0  0  0  0  0  0  0  0  0
    5.4887  -13.6211   20.5195 H   0  0  0  0  0  0  0  0  0  0  0  0
    8.5303  -14.7877   19.3224 H   0  0  0  0  0  0  0  0  0  0  0  0
    7.9882  -14.4408   20.5542 H   0  0  0  0  0  0  0  0  0  0  0  0
    7.3429  -17.6750   19.5127 H   0  0  0  0  0  0  0  0  0  0  0  0
    6.3648  -17.3831   20.7084 H   0  0  0  0  0  0  0  0  0  0  0  0
    5.5147  -15.9547   19.7802 H   0  0  0  0  0  0  0  0  0  0  0  0
    5.9664  -17.0486   18.2580 H   0  0  0  0  0  0  0  0  0  0  0  0
    3.3065  -15.7384   18.1703 H   0  0  0  0  0  0  0  0  0  0  0  0
    4.6265  -15.5477   17.1270 H   0  0  0  0  0  0  0  0  0  0  0  0
  1  2  2  0
  2  3  1  0
  3  4  1  0
  4  5  1  0
  5  6  1  0
  6  7  2  0
  7  8  1  0
  8  9  1  0
  9 10  2  0
  4 11  1  0
 11 12  2  0
 11 13  1  0
 13 14  1  0
 14 15  1  0
 15 16  1  0
 16 17  2  0
 17 18  1  0
 18 19  2  0
 19 20  1  0
 20 21  2  0
 21 22  1  0
  2 23  1  0
 23 24  1  0
 24 25  1  0
 25 26  1  0
 26 27  1  0
 27 28  1  0
 10  6  1  0
 22 13  1  0
 28 23  1  0
 21 16  1  0
  3 29  1  0
  4 30  1  0
  5 31  1  0
  5 32  1  0
  7 33  1  0
  8 34  1  0
  9 35  1  0
 14 36  1  0
 14 37  1  0
 15 38  1  0
 15 39  1  0
 17 40  1  0
 18 41  1  0
 19 42  1  0
 20 43  1  0
 22 44  1  0
 22 45  1  0
 23 46  1  0
 24 47  1  0
 24 48  1  0
 25 49  1  0
 25 50  1  0
 26 51  1  0
 26 52  1  0
 27 53  1  0
 27 54  1  0
 28 55  1  0
 28 56  1  0
M  END
>  <Energy>  (722) 
2097.8342666078729

>  <compound_id>  (722) 
63773

>  <target_id>  (722) 
1

>  <reference_id>  (722) 
64

>  <inspiration_ids>  (722) 
[146, 64]

>  <energy_score>  (722) 
2025.0076882143294

>  <distance_score>  (722) 
14.511996388486116

>  <path>  (722) 
/opt/xchem-fragalysis-2/maxwin/BulkDock/SCRATCH/511024/C63773-P64/C63773-P64.minimised.mol

>  <scratch_subdir>  (722) 
/opt/xchem-fragalysis-2/maxwin/BulkDock/SCRATCH/511024/C63773-P64

>  <fragmenstein_runtime>  (722) 
33.59215497970581

>  <fragmenstein_outcome>  (722) 
too moved

>  <fragmenstein_mode>  (722) 
expansion

>  <fragmenstein_error>  (722) 


$$$$
C66912-P146
     RDKit          3D

 37 39  0  0  0  0  0  0  0  0999 V2000
    9.2526  -13.9713   22.5855 C   0  0  0  0  0  0  0  0  0  0  0  0
    9.6205  -15.2742   22.1225 O   0  0  0  0  0  0  0  0  0  0  0  0
   10.6198  -15.3296   21.2055 C   0  0  0  0  0  0  0  0  0  0  0  0
   11.5985  -16.0490   21.3300 O   0  0  0  0  0  0  0  0  0  0  0  0
   10.3908  -14.5203   19.9821 C   0  0  0  0  0  0  0  0  0  0  0  0
   11.4377  -13.6621   19.5757 C   0  0  0  0  0  0  0  0  0  0  0  0
   11.3165  -12.8882   18.4201 C   0  0  0  0  0  0  0  0  0  0  0  0
   10.1652  -12.9999   17.6469 C   0  0  0  0  0  0  0  0  0  0  0  0
    9.1508  -13.9112   18.0140 C   0  0  0  0  0  0  0  0  0  0  0  0
    9.2216  -14.6626   19.2034 C   0  0  0  0  0  0  0  0  0  0  0  0
    8.0921  -15.6519   19.5901 C   0  0  0  0  0  0  0  0  0  0  0  0
    7.0516  -16.0037   18.5392 N   0  0  0  0  0  0  0  0  0  0  0  0
    6.4522  -17.7063   18.5541 S   0  0  0  0  0  0  0  0  0  0  0  0
    7.5743  -18.5110   19.0121 O   0  0  0  0  0  0  0  0  0  0  0  0
    5.9016  -17.9405   17.2307 O   0  0  0  0  0  0  0  0  0  0  0  0
    5.0722  -18.3107   19.6843 C   0  0  0  0  0  0  0  0  0  0  0  0
    3.8224  -18.6534   19.3403 N   0  0  0  0  0  0  0  0  0  0  0  0
    3.3611  -19.5170   20.3125 C   0  0  0  0  0  0  0  0  0  0  0  0
    4.2846  -19.6490   21.3171 C   0  0  0  0  0  0  0  0  0  0  0  0
    5.3516  -18.8764   20.9182 N   0  0  0  0  0  0  0  0  0  0  0  0
    7.5913  -15.6538   17.1730 C   0  0  0  0  0  0  0  0  0  0  0  0
    7.9949  -14.1816   17.0986 C   0  0  0  0  0  0  0  0  0  0  0  0
    8.4055  -13.5983   22.0058 H   0  0  0  0  0  0  0  0  0  0  0  0
   10.0959  -13.2761   22.5425 H   0  0  0  0  0  0  0  0  0  0  0  0
    8.9408  -14.0624   23.6297 H   0  0  0  0  0  0  0  0  0  0  0  0
   12.3454  -13.5848   20.1733 H   0  0  0  0  0  0  0  0  0  0  0  0
   12.1210  -12.2202   18.1292 H   0  0  0  0  0  0  0  0  0  0  0  0
   10.0752  -12.4232   16.7284 H   0  0  0  0  0  0  0  0  0  0  0  0
    8.5767  -16.5706   19.9309 H   0  0  0  0  0  0  0  0  0  0  0  0
    7.5413  -15.2191   20.4313 H   0  0  0  0  0  0  0  0  0  0  0  0
    2.4044  -20.0104   20.2252 H   0  0  0  0  0  0  0  0  0  0  0  0
    4.3106  -20.2404   22.2209 H   0  0  0  0  0  0  0  0  0  0  0  0
    6.2731  -18.8659   21.3330 H   0  0  0  0  0  0  0  0  0  0  0  0
    6.8215  -15.8349   16.4211 H   0  0  0  0  0  0  0  0  0  0  0  0
    8.4442  -16.3056   16.9415 H   0  0  0  0  0  0  0  0  0  0  0  0
    8.2965  -13.9889   16.0662 H   0  0  0  0  0  0  0  0  0  0  0  0
    7.1508  -13.5455   17.3814 H   0  0  0  0  0  0  0  0  0  0  0  0
  1  2  1  0
  2  3  1  0
  3  4  2  0
  3  5  1  0
  5  6  2  0
  6  7  1  0
  7  8  2  0
  8  9  1  0
  9 10  2  0
 10 11  1  0
 11 12  1  0
 12 13  1  0
 13 14  2  0
 13 15  2  0
 13 16  1  0
 16 17  2  0
 17 18  1  0
 18 19  2  0
 19 20  1  0
 12 21  1  0
 21 22  1  0
 10  5  1  0
 20 16  1  0
 22  9  1  0
  1 23  1  0
  1 24  1  0
  1 25  1  0
  6 26  1  0
  7 27  1  0
  8 28  1  0
 11 29  1  0
 11 30  1  0
 18 31  1  0
 19 32  1  0
 20 33  1  0
 21 34  1  0
 21 35  1  0
 22 36  1  0
 22 37  1  0
M  END
>  <Energy>  (723) 
64.117698113270762

>  <compound_id>  (723) 
66912

>  <target_id>  (723) 
1

>  <reference_id>  (723) 
146

>  <inspiration_ids>  (723) 
[146, 64]

>  <energy_score>  (723) 
0.47471281771424856

>  <distance_score>  (723) 
15.162959235183486

>  <path>  (723) 
/opt/xchem-fragalysis-2/maxwin/BulkDock/SCRATCH/511024/C66912-P146/C66912-P146.minimised.mol

>  <scratch_subdir>  (723) 
/opt/xchem-fragalysis-2/maxwin/BulkDock/SCRATCH/511024/C66912-P146

>  <fragmenstein_runtime>  (723) 
41.43594217300415

>  <fragmenstein_outcome>  (723) 
too moved

>  <fragmenstein_mode>  (723) 
expansion

>  <fragmenstein_error>  (723) 


$$$$
C66912-P64
     RDKit          3D

 37 39  0  0  0  0  0  0  0  0999 V2000
    5.3826   -6.3808   17.7805 C   0  0  0  0  0  0  0  0  0  0  0  0
    4.1943   -5.8839   17.2165 O   0  0  0  0  0  0  0  0  0  0  0  0
    3.4826   -5.0536   17.9832 C   0  0  0  0  0  0  0  0  0  0  0  0
    3.6526   -4.7154   19.1324 O   0  0  0  0  0  0  0  0  0  0  0  0
    2.4208   -4.5711   17.1635 C   0  0  0  0  0  0  0  0  0  0  0  0
    2.7501   -3.6349   16.1718 C   0  0  0  0  0  0  0  0  0  0  0  0
    1.7356   -3.0963   15.4178 C   0  0  0  0  0  0  0  0  0  0  0  0
    0.4282   -3.4842   15.7010 C   0  0  0  0  0  0  0  0  0  0  0  0
    0.1289   -4.4185   16.7233 C   0  0  0  0  0  0  0  0  0  0  0  0
    1.1393   -5.0237   17.4539 C   0  0  0  0  0  0  0  0  0  0  0  0
    0.8787   -6.0532   18.5628 C   0  0  0  0  0  0  0  0  0  0  0  0
   -0.5600   -6.5792   18.6392 N   0  0  0  0  0  0  0  0  0  0  0  0
   -0.8746   -7.3554   20.2691 S   0  0  0  0  0  0  0  0  0  0  0  0
    0.4125   -7.7038   20.8290 O   0  0  0  0  0  0  0  0  0  0  0  0
   -1.7882   -6.4668   20.9636 O   0  0  0  0  0  0  0  0  0  0  0  0
   -1.8131   -8.9280   20.1572 C   0  0  0  0  0  0  0  0  0  0  0  0
   -1.9181   -9.9002   21.0685 N   0  0  0  0  0  0  0  0  0  0  0  0
   -2.3923  -10.9798   20.3659 C   0  0  0  0  0  0  0  0  0  0  0  0
   -2.7419  -10.6496   19.0923 C   0  0  0  0  0  0  0  0  0  0  0  0
   -2.4816   -9.3134   19.0251 N   0  0  0  0  0  0  0  0  0  0  0  0
   -1.4797   -5.4103   18.4141 C   0  0  0  0  0  0  0  0  0  0  0  0
   -1.2895   -4.7817   17.0256 C   0  0  0  0  0  0  0  0  0  0  0  0
    5.8981   -5.6881   18.4318 H   0  0  0  0  0  0  0  0  0  0  0  0
    5.1422   -7.2895   18.3221 H   0  0  0  0  0  0  0  0  0  0  0  0
    6.0659   -6.5545   16.9557 H   0  0  0  0  0  0  0  0  0  0  0  0
    3.7761   -3.3336   15.9989 H   0  0  0  0  0  0  0  0  0  0  0  0
    1.9432   -2.3735   14.6345 H   0  0  0  0  0  0  0  0  0  0  0  0
   -0.3834   -3.0422   15.1236 H   0  0  0  0  0  0  0  0  0  0  0  0
    1.5233   -6.9251   18.4010 H   0  0  0  0  0  0  0  0  0  0  0  0
    1.1226   -5.5728   19.5180 H   0  0  0  0  0  0  0  0  0  0  0  0
   -2.3994  -11.9713   20.7512 H   0  0  0  0  0  0  0  0  0  0  0  0
   -3.1236  -11.2243   18.2636 H   0  0  0  0  0  0  0  0  0  0  0  0
   -2.6718   -8.7100   18.2491 H   0  0  0  0  0  0  0  0  0  0  0  0
   -2.5170   -5.7547   18.4954 H   0  0  0  0  0  0  0  0  0  0  0  0
   -1.3038   -4.6484   19.1844 H   0  0  0  0  0  0  0  0  0  0  0  0
   -1.9186   -3.8847   16.9707 H   0  0  0  0  0  0  0  0  0  0  0  0
   -1.6404   -5.4671   16.2529 H   0  0  0  0  0  0  0  0  0  0  0  0
  1  2  1  0
  2  3  1  0
  3  4  2  0
  3  5  1  0
  5  6  2  0
  6  7  1  0
  7  8  2  0
  8  9  1  0
  9 10  2  0
 10 11  1  0
 11 12  1  0
 12 13  1  0
 13 14  2  0
 13 15  2  0
 13 16  1  0
 16 17  2  0
 17 18  1  0
 18 19  2  0
 19 20  1  0
 12 21  1  0
 21 22  1  0
 10  5  1  0
 20 16  1  0
 22  9  1  0
  1 23  1  0
  1 24  1  0
  1 25  1  0
  6 26  1  0
  7 27  1  0
  8 28  1  0
 11 29  1  0
 11 30  1  0
 18 31  1  0
 19 32  1  0
 20 33  1  0
 21 34  1  0
 21 35  1  0
 22 36  1  0
 22 37  1  0
M  END
>  <Energy>  (724) 
46.959919725564475

>  <compound_id>  (724) 
66912

>  <target_id>  (724) 
1

>  <reference_id>  (724) 
64

>  <inspiration_ids>  (724) 
[146, 64]

>  <energy_score>  (724) 
-16.68306556998982

>  <distance_score>  (724) 
15.970823184450612

>  <path>  (724) 
/opt/xchem-fragalysis-2/maxwin/BulkDock/SCRATCH/511024/C66912-P64/C66912-P64.minimised.mol

>  <scratch_subdir>  (724) 
/opt/xchem-fragalysis-2/maxwin/BulkDock/SCRATCH/511024/C66912-P64

>  <fragmenstein_runtime>  (724) 
20.62120795249939

>  <fragmenstein_outcome>  (724) 
too moved

>  <fragmenstein_mode>  (724) 
expansion

>  <fragmenstein_error>  (724) 


$$$$
C63775-P146
     RDKit          3D

 34 36  0  0  0  0  0  0  0  0999 V2000
   -5.3977  -12.6426   18.1170 C   0  0  0  0  0  0  0  0  0  0  0  0
   -3.9973  -12.0349   18.7159 C   0  0  0  0  0  0  0  0  0  0  0  0
   -3.0928  -11.4746   17.8013 C   0  0  0  0  0  0  0  0  0  0  0  0
   -2.0760  -10.5592   18.0017 C   0  0  0  0  0  0  0  0  0  0  0  0
   -2.2052   -9.8304   19.0788 C   0  0  0  0  0  0  0  0  0  0  0  0
   -3.1028  -10.2178   20.0651 C   0  0  0  0  0  0  0  0  0  0  0  0
   -3.9215  -11.2358   20.0010 C   0  0  0  0  0  0  0  0  0  0  0  0
   -4.4425  -10.5624   21.8561 C   0  0  0  0  0  0  0  0  0  0  0  0
   -5.6982  -11.5788   23.1428 N   0  0  0  0  0  0  0  0  0  0  0  0
   -5.9111  -12.8662   24.4680 S   0  0  0  0  0  0  0  0  0  0  0  0
   -4.6581  -13.3534   25.0310 O   0  0  0  0  0  0  0  0  0  0  0  0
   -6.9021  -12.2936   25.3711 O   0  0  0  0  0  0  0  0  0  0  0  0
   -6.7461  -14.3958   24.0393 C   0  0  0  0  0  0  0  0  0  0  0  0
   -6.4118  -15.6455   24.5565 C   0  0  0  0  0  0  0  0  0  0  0  0
   -7.3502  -16.5166   24.0758 N   0  0  0  0  0  0  0  0  0  0  0  0
   -8.2426  -15.7930   23.3383 C   0  0  0  0  0  0  0  0  0  0  0  0
   -7.9165  -14.5174   23.2927 N   0  0  0  0  0  0  0  0  0  0  0  0
   -3.6048  -11.1168   23.0898 C   0  0  0  0  0  0  0  0  0  0  0  0
   -3.6604  -11.8714   21.0955 C   0  0  0  0  0  0  0  0  0  0  0  0
   -5.3554  -13.4846   17.4363 H   0  0  0  0  0  0  0  0  0  0  0  0
   -6.0655  -13.0062   18.9049 H   0  0  0  0  0  0  0  0  0  0  0  0
   -5.9109  -11.8776   17.5211 H   0  0  0  0  0  0  0  0  0  0  0  0
   -3.6255  -11.0842   16.9487 H   0  0  0  0  0  0  0  0  0  0  0  0
   -1.6016   -9.9933   17.2304 H   0  0  0  0  0  0  0  0  0  0  0  0
   -1.7332   -8.8530   19.1051 H   0  0  0  0  0  0  0  0  0  0  0  0
   -3.4165   -9.9619   21.9337 H   0  0  0  0  0  0  0  0  0  0  0  0
   -4.2976   -9.3569   22.1990 H   0  0  0  0  0  0  0  0  0  0  0  0
   -5.6080  -15.9556   25.2090 H   0  0  0  0  0  0  0  0  0  0  0  0
   -7.3780  -17.5141   24.2268 H   0  0  0  0  0  0  0  0  0  0  0  0
   -9.0990  -16.2416   22.8522 H   0  0  0  0  0  0  0  0  0  0  0  0
   -3.4069  -11.7548   23.9893 H   0  0  0  0  0  0  0  0  0  0  0  0
   -3.1633  -10.1513   23.4830 H   0  0  0  0  0  0  0  0  0  0  0  0
   -4.8576  -12.2541   20.9908 H   0  0  0  0  0  0  0  0  0  0  0  0
   -3.1622  -12.9064   20.7134 H   0  0  0  0  0  0  0  0  0  0  0  0
  1  2  1  0
  2  3  2  0
  3  4  1  0
  4  5  2  0
  5  6  1  0
  6  7  2  0
  7  8  1  0
  8  9  1  0
  9 10  1  0
 10 11  2  0
 10 12  2  0
 10 13  1  0
 13 14  2  0
 14 15  1  0
 15 16  1  0
 16 17  2  0
  9 18  1  0
 18 19  1  0
  7  2  1  0
 17 13  1  0
 19  6  1  0
  1 20  1  0
  1 21  1  0
  1 22  1  0
  3 23  1  0
  4 24  1  0
  5 25  1  0
  8 26  1  0
  8 27  1  0
 14 28  1  0
 15 29  1  0
 16 30  1  0
 18 31  1  0
 18 32  1  0
 19 33  1  0
 19 34  1  0
M  END
>  <Energy>  (725) 
1236.8562038961468

>  <compound_id>  (725) 
63775

>  <target_id>  (725) 
1

>  <reference_id>  (725) 
146

>  <inspiration_ids>  (725) 
[146, 64]

>  <energy_score>  (725) 
1157.4195587485974

>  <distance_score>  (725) 
17.383162566777706

>  <path>  (725) 
/opt/xchem-fragalysis-2/maxwin/BulkDock/SCRATCH/511024/C63775-P146/C63775-P146.minimised.mol

>  <scratch_subdir>  (725) 
/opt/xchem-fragalysis-2/maxwin/BulkDock/SCRATCH/511024/C63775-P146

>  <fragmenstein_runtime>  (725) 
18.795758485794067

>  <fragmenstein_outcome>  (725) 
too moved

>  <fragmenstein_mode>  (725) 
expansion

>  <fragmenstein_error>  (725) 


$$$$
C63775-P64
     RDKit          3D

 34 36  0  0  0  0  0  0  0  0999 V2000
    2.7739   -2.9435   21.9126 C   0  0  0  0  0  0  0  0  0  0  0  0
    3.9705   -3.7231   22.3876 C   0  0  0  0  0  0  0  0  0  0  0  0
    5.2039   -3.5246   21.7566 C   0  0  0  0  0  0  0  0  0  0  0  0
    6.3264   -4.2380   22.1585 C   0  0  0  0  0  0  0  0  0  0  0  0
    6.2364   -5.1609   23.1873 C   0  0  0  0  0  0  0  0  0  0  0  0
    5.0060   -5.4034   23.8015 C   0  0  0  0  0  0  0  0  0  0  0  0
    3.8660   -4.6692   23.4338 C   0  0  0  0  0  0  0  0  0  0  0  0
    2.5233   -4.9255   24.1277 C   0  0  0  0  0  0  0  0  0  0  0  0
    2.4924   -5.9464   25.2742 N   0  0  0  0  0  0  0  0  0  0  0  0
    0.8204   -6.4199   25.5912 S   0  0  0  0  0  0  0  0  0  0  0  0
    0.1390   -5.2052   26.0070 O   0  0  0  0  0  0  0  0  0  0  0  0
    0.3647   -7.1089   24.4029 O   0  0  0  0  0  0  0  0  0  0  0  0
    0.3081   -7.5837   26.8984 C   0  0  0  0  0  0  0  0  0  0  0  0
   -1.0204   -7.7506   27.2969 C   0  0  0  0  0  0  0  0  0  0  0  0
   -1.0467   -8.7948   28.1859 N   0  0  0  0  0  0  0  0  0  0  0  0
    0.2408   -9.2245   28.3363 C   0  0  0  0  0  0  0  0  0  0  0  0
    1.0739   -8.5671   27.5402 N   0  0  0  0  0  0  0  0  0  0  0  0
    3.4692   -7.0185   24.9675 C   0  0  0  0  0  0  0  0  0  0  0  0
    4.8942   -6.4450   24.8768 C   0  0  0  0  0  0  0  0  0  0  0  0
    2.0194   -3.6208   21.5000 H   0  0  0  0  0  0  0  0  0  0  0  0
    2.3398   -2.3694   22.7372 H   0  0  0  0  0  0  0  0  0  0  0  0
    3.0440   -2.2305   21.1262 H   0  0  0  0  0  0  0  0  0  0  0  0
    5.2860   -2.8221   20.9323 H   0  0  0  0  0  0  0  0  0  0  0  0
    7.2657   -4.1041   21.6415 H   0  0  0  0  0  0  0  0  0  0  0  0
    7.1153   -5.7142   23.4942 H   0  0  0  0  0  0  0  0  0  0  0  0
    1.8232   -5.2539   23.3501 H   0  0  0  0  0  0  0  0  0  0  0  0
    2.1755   -3.9759   24.5514 H   0  0  0  0  0  0  0  0  0  0  0  0
   -1.9105   -7.2063   27.0200 H   0  0  0  0  0  0  0  0  0  0  0  0
   -1.8553   -9.1493   28.6812 H   0  0  0  0  0  0  0  0  0  0  0  0
    0.5127  -10.0239   29.0150 H   0  0  0  0  0  0  0  0  0  0  0  0
    3.4480   -7.7483   25.7823 H   0  0  0  0  0  0  0  0  0  0  0  0
    3.2029   -7.5039   24.0229 H   0  0  0  0  0  0  0  0  0  0  0  0
    5.1773   -5.9912   25.8344 H   0  0  0  0  0  0  0  0  0  0  0  0
    5.5869   -7.2706   24.6746 H   0  0  0  0  0  0  0  0  0  0  0  0
  1  2  1  0
  2  3  2  0
  3  4  1  0
  4  5  2  0
  5  6  1  0
  6  7  2  0
  7  8  1  0
  8  9  1  0
  9 10  1  0
 10 11  2  0
 10 12  2  0
 10 13  1  0
 13 14  2  0
 14 15  1  0
 15 16  1  0
 16 17  2  0
  9 18  1  0
 18 19  1  0
  7  2  1  0
 17 13  1  0
 19  6  1  0
  1 20  1  0
  1 21  1  0
  1 22  1  0
  3 23  1  0
  4 24  1  0
  5 25  1  0
  8 26  1  0
  8 27  1  0
 14 28  1  0
 15 29  1  0
 16 30  1  0
 18 31  1  0
 18 32  1  0
 19 33  1  0
 19 34  1  0
M  END
>  <Energy>  (726) 
65.436201473636828

>  <compound_id>  (726) 
63775

>  <target_id>  (726) 
1

>  <reference_id>  (726) 
64

>  <inspiration_ids>  (726) 
[146, 64]

>  <energy_score>  (726) 
-14.000443673902339

>  <distance_score>  (726) 
15.883455212574654

>  <path>  (726) 
/opt/xchem-fragalysis-2/maxwin/BulkDock/SCRATCH/511024/C63775-P64/C63775-P64.minimised.mol

>  <scratch_subdir>  (726) 
/opt/xchem-fragalysis-2/maxwin/BulkDock/SCRATCH/511024/C63775-P64

>  <fragmenstein_runtime>  (726) 
15.357460021972656

>  <fragmenstein_outcome>  (726) 
too moved

>  <fragmenstein_mode>  (726) 
expansion

>  <fragmenstein_error>  (726) 


$$$$
C66914-P146
     RDKit          3D

 34 36  0  0  0  0  0  0  0  0999 V2000
   10.2248   -5.8034   20.1317 C   0  0  0  0  0  0  0  0  0  0  0  0
    9.4827   -6.0954   18.7671 C   0  0  0  0  0  0  0  0  0  0  0  0
   10.8158   -5.0259   17.7443 C   0  0  0  0  0  0  0  0  0  0  0  0
   11.6082   -5.3436   16.6371 C   0  0  0  0  0  0  0  0  0  0  0  0
   11.0848   -6.5332   16.0191 C   0  0  0  0  0  0  0  0  0  0  0  0
    9.3074   -7.2662   16.0245 C   0  0  0  0  0  0  0  0  0  0  0  0
    7.7463   -6.5498   17.5116 C   0  0  0  0  0  0  0  0  0  0  0  0
    7.0616   -7.5187   19.1426 C   0  0  0  0  0  0  0  0  0  0  0  0
    8.2636   -8.9862   19.6069 N   0  0  0  0  0  0  0  0  0  0  0  0
    7.5185  -10.2327   20.3350 C   0  0  0  0  0  0  0  0  0  0  0  0
    6.5612  -10.4850   21.5463 C   0  0  0  0  0  0  0  0  0  0  0  0
    6.0102   -9.7276   22.4838 N   0  0  0  0  0  0  0  0  0  0  0  0
    5.2019  -10.5525   23.2645 C   0  0  0  0  0  0  0  0  0  0  0  0
    5.2503  -11.8499   22.8252 C   0  0  0  0  0  0  0  0  0  0  0  0
    6.0930  -11.8046   21.7425 N   0  0  0  0  0  0  0  0  0  0  0  0
    8.8218  -10.0154   18.0829 C   0  0  0  0  0  0  0  0  0  0  0  0
    9.4946   -9.3290   16.3176 C   0  0  0  0  0  0  0  0  0  0  0  0
   10.5422   -6.5684   20.8133 H   0  0  0  0  0  0  0  0  0  0  0  0
    9.5663   -5.0141   20.4680 H   0  0  0  0  0  0  0  0  0  0  0  0
   11.3112   -5.5124   20.1509 H   0  0  0  0  0  0  0  0  0  0  0  0
   11.7361   -4.5685   18.2752 H   0  0  0  0  0  0  0  0  0  0  0  0
   12.5003   -4.7808   16.4053 H   0  0  0  0  0  0  0  0  0  0  0  0
   11.0858   -6.2058   14.9786 H   0  0  0  0  0  0  0  0  0  0  0  0
    6.8740   -6.8115   19.9440 H   0  0  0  0  0  0  0  0  0  0  0  0
    5.9830   -7.7540   18.9526 H   0  0  0  0  0  0  0  0  0  0  0  0
    7.0331  -10.8311   19.5553 H   0  0  0  0  0  0  0  0  0  0  0  0
    8.4017  -10.8213   20.6280 H   0  0  0  0  0  0  0  0  0  0  0  0
    4.6299  -10.1427   24.0866 H   0  0  0  0  0  0  0  0  0  0  0  0
    4.7567  -12.7604   23.1319 H   0  0  0  0  0  0  0  0  0  0  0  0
    6.2774  -12.5680   21.1046 H   0  0  0  0  0  0  0  0  0  0  0  0
    9.6216  -10.6525   18.5200 H   0  0  0  0  0  0  0  0  0  0  0  0
    8.0851  -10.8071   17.8410 H   0  0  0  0  0  0  0  0  0  0  0  0
    8.8679   -9.8762   15.5989 H   0  0  0  0  0  0  0  0  0  0  0  0
   10.5152   -9.7088   16.1181 H   0  0  0  0  0  0  0  0  0  0  0  0
  1  2  1  0
  2  3  2  0
  3  4  1  0
  4  5  2  0
  5  6  1  0
  6  7  2  0
  7  8  1  0
  8  9  1  0
  9 10  1  0
 10 11  1  0
 11 12  2  0
 12 13  1  0
 13 14  2  0
 14 15  1  0
  9 16  1  0
 16 17  1  0
  7  2  1  0
 15 11  1  0
 17  6  1  0
  1 18  1  0
  1 19  1  0
  1 20  1  0
  3 21  1  0
  4 22  1  0
  5 23  1  0
  8 24  1  0
  8 25  1  0
 10 26  1  0
 10 27  1  0
 13 28  1  0
 14 29  1  0
 15 30  1  0
 16 31  1  0
 16 32  1  0
 17 33  1  0
 17 34  1  0
M  END
>  <Energy>  (727) 
1381.4536330130966

>  <compound_id>  (727) 
66914

>  <target_id>  (727) 
1

>  <reference_id>  (727) 
146

>  <inspiration_ids>  (727) 
[146, 64]

>  <energy_score>  (727) 
1303.7166458260215

>  <distance_score>  (727) 
14.733760519501693

>  <path>  (727) 
/opt/xchem-fragalysis-2/maxwin/BulkDock/SCRATCH/511024/C66914-P146/C66914-P146.minimised.mol

>  <scratch_subdir>  (727) 
/opt/xchem-fragalysis-2/maxwin/BulkDock/SCRATCH/511024/C66914-P146

>  <fragmenstein_runtime>  (727) 
10.5004563331604

>  <fragmenstein_outcome>  (727) 
too moved

>  <fragmenstein_mode>  (727) 
expansion

>  <fragmenstein_error>  (727) 


$$$$
C66914-P64
     RDKit          3D

 34 36  0  0  0  0  0  0  0  0999 V2000
    8.7950  -11.7571   18.6521 C   0  0  0  0  0  0  0  0  0  0  0  0
    9.2348  -11.1346   19.9507 C   0  0  0  0  0  0  0  0  0  0  0  0
   10.5945  -10.8094   20.1131 C   0  0  0  0  0  0  0  0  0  0  0  0
   11.0677  -10.2630   21.3024 C   0  0  0  0  0  0  0  0  0  0  0  0
   10.1876  -10.0520   22.3523 C   0  0  0  0  0  0  0  0  0  0  0  0
    8.8309  -10.4020   22.2242 C   0  0  0  0  0  0  0  0  0  0  0  0
    8.3392  -10.9619   21.0313 C   0  0  0  0  0  0  0  0  0  0  0  0
    6.8543  -11.3152   20.9041 C   0  0  0  0  0  0  0  0  0  0  0  0
    6.0591  -11.4733   22.1638 N   0  0  0  0  0  0  0  0  0  0  0  0
    6.1237  -12.8502   22.7426 C   0  0  0  0  0  0  0  0  0  0  0  0
    5.0118  -13.3311   23.7288 C   0  0  0  0  0  0  0  0  0  0  0  0
    5.1818  -13.6890   24.9987 N   0  0  0  0  0  0  0  0  0  0  0  0
    3.9878  -14.2073   25.4472 C   0  0  0  0  0  0  0  0  0  0  0  0
    3.0643  -14.1854   24.4446 C   0  0  0  0  0  0  0  0  0  0  0  0
    3.7214  -13.6529   23.3565 N   0  0  0  0  0  0  0  0  0  0  0  0
    6.4230  -10.3857   23.0775 C   0  0  0  0  0  0  0  0  0  0  0  0
    7.9190  -10.2712   23.4158 C   0  0  0  0  0  0  0  0  0  0  0  0
    9.4931  -11.5196   17.8422 H   0  0  0  0  0  0  0  0  0  0  0  0
    8.7500  -12.8454   18.7592 H   0  0  0  0  0  0  0  0  0  0  0  0
    7.8143  -11.3885   18.3418 H   0  0  0  0  0  0  0  0  0  0  0  0
   11.2975  -11.0056   19.3070 H   0  0  0  0  0  0  0  0  0  0  0  0
   12.1244  -10.0454   21.4256 H   0  0  0  0  0  0  0  0  0  0  0  0
   10.5639   -9.6625   23.2953 H   0  0  0  0  0  0  0  0  0  0  0  0
    6.3970  -10.4953   20.3408 H   0  0  0  0  0  0  0  0  0  0  0  0
    6.7285  -12.2173   20.2949 H   0  0  0  0  0  0  0  0  0  0  0  0
    6.0814  -13.5704   21.9154 H   0  0  0  0  0  0  0  0  0  0  0  0
    7.0936  -13.0102   23.2294 H   0  0  0  0  0  0  0  0  0  0  0  0
    3.8708  -14.5539   26.4646 H   0  0  0  0  0  0  0  0  0  0  0  0
    2.0296  -14.4763   24.3983 H   0  0  0  0  0  0  0  0  0  0  0  0
    3.3199  -13.5266   22.4301 H   0  0  0  0  0  0  0  0  0  0  0  0
    5.8453  -10.4659   24.0064 H   0  0  0  0  0  0  0  0  0  0  0  0
    6.0981   -9.4407   22.6202 H   0  0  0  0  0  0  0  0  0  0  0  0
    8.0918   -9.3094   23.9133 H   0  0  0  0  0  0  0  0  0  0  0  0
    8.1856  -11.0594   24.1311 H   0  0  0  0  0  0  0  0  0  0  0  0
  1  2  1  0
  2  3  2  0
  3  4  1  0
  4  5  2  0
  5  6  1  0
  6  7  2  0
  7  8  1  0
  8  9  1  0
  9 10  1  0
 10 11  1  0
 11 12  2  0
 12 13  1  0
 13 14  2  0
 14 15  1  0
  9 16  1  0
 16 17  1  0
  7  2  1  0
 15 11  1  0
 17  6  1  0
  1 18  1  0
  1 19  1  0
  1 20  1  0
  3 21  1  0
  4 22  1  0
  5 23  1  0
  8 24  1  0
  8 25  1  0
 10 26  1  0
 10 27  1  0
 13 28  1  0
 14 29  1  0
 15 30  1  0
 16 31  1  0
 16 32  1  0
 17 33  1  0
 17 34  1  0
M  END
>  <Energy>  (728) 
56.103067333839341

>  <compound_id>  (728) 
66914

>  <target_id>  (728) 
1

>  <reference_id>  (728) 
64

>  <inspiration_ids>  (728) 
[146, 64]

>  <energy_score>  (728) 
-21.63391985324472

>  <distance_score>  (728) 
14.856712068841373

>  <path>  (728) 
/opt/xchem-fragalysis-2/maxwin/BulkDock/SCRATCH/511024/C66914-P64/C66914-P64.minimised.mol

>  <scratch_subdir>  (728) 
/opt/xchem-fragalysis-2/maxwin/BulkDock/SCRATCH/511024/C66914-P64

>  <fragmenstein_runtime>  (728) 
12.460139751434326

>  <fragmenstein_outcome>  (728) 
too moved

>  <fragmenstein_mode>  (728) 
expansion

>  <fragmenstein_error>  (728) 


$$$$
C66922-P146
     RDKit          3D

 36 38  0  0  0  0  0  0  0  0999 V2000
   -2.4322   -3.1531   21.0815 O   0  0  0  0  0  0  0  0  0  0  0  0
   -1.2622   -3.1896   20.7245 C   0  0  0  0  0  0  0  0  0  0  0  0
   -0.6574   -2.1861   20.0514 O   0  0  0  0  0  0  0  0  0  0  0  0
   -0.2632   -4.5300   21.0048 C   0  0  0  0  0  0  0  0  0  0  0  0
    1.4435   -4.0616   21.1127 C   0  0  0  0  0  0  0  0  0  0  0  0
    2.0472   -3.0197   21.8026 C   0  0  0  0  0  0  0  0  0  0  0  0
    3.4287   -2.8218   21.6179 C   0  0  0  0  0  0  0  0  0  0  0  0
    4.1720   -3.6396   20.7497 C   0  0  0  0  0  0  0  0  0  0  0  0
    3.5419   -4.6677   20.0504 C   0  0  0  0  0  0  0  0  0  0  0  0
    2.1828   -4.8572   20.2576 C   0  0  0  0  0  0  0  0  0  0  0  0
    1.2361   -5.8332   19.7103 C   0  0  0  0  0  0  0  0  0  0  0  0
   -0.3106   -5.3119   20.4740 C   0  0  0  0  0  0  0  0  0  0  0  0
   -0.8496   -6.2505   21.4577 N   0  0  0  0  0  0  0  0  0  0  0  0
   -1.2176   -6.2130   22.8081 C   0  0  0  0  0  0  0  0  0  0  0  0
   -0.4575   -6.4576   23.7396 O   0  0  0  0  0  0  0  0  0  0  0  0
   -2.7423   -5.9485   23.0814 C   0  0  0  0  0  0  0  0  0  0  0  0
   -3.5104   -7.2268   23.6199 C   0  0  0  0  0  0  0  0  0  0  0  0
   -3.0741   -8.1640   24.4608 N   0  0  0  0  0  0  0  0  0  0  0  0
   -4.0834   -9.0996   24.6091 C   0  0  0  0  0  0  0  0  0  0  0  0
   -5.1734   -8.7269   23.8717 C   0  0  0  0  0  0  0  0  0  0  0  0
   -4.8040   -7.5610   23.2426 N   0  0  0  0  0  0  0  0  0  0  0  0
    0.2843   -2.3198   19.8154 H   0  0  0  0  0  0  0  0  0  0  0  0
   -0.3126   -4.2212   22.1289 H   0  0  0  0  0  0  0  0  0  0  0  0
    1.4877   -2.3773   22.4758 H   0  0  0  0  0  0  0  0  0  0  0  0
    3.9349   -2.0263   22.1608 H   0  0  0  0  0  0  0  0  0  0  0  0
    5.2401   -3.4797   20.6297 H   0  0  0  0  0  0  0  0  0  0  0  0
    4.1077   -5.3051   19.3774 H   0  0  0  0  0  0  0  0  0  0  0  0
    1.4236   -6.8587   20.0225 H   0  0  0  0  0  0  0  0  0  0  0  0
    1.1271   -5.7311   18.6251 H   0  0  0  0  0  0  0  0  0  0  0  0
   -0.6153   -6.2433   19.8372 H   0  0  0  0  0  0  0  0  0  0  0  0
   -1.0754   -5.0070   19.5173 H   0  0  0  0  0  0  0  0  0  0  0  0
   -3.2260   -5.6205   22.1553 H   0  0  0  0  0  0  0  0  0  0  0  0
   -2.8262   -5.1498   23.8252 H   0  0  0  0  0  0  0  0  0  0  0  0
   -3.9600   -9.9793   25.2273 H   0  0  0  0  0  0  0  0  0  0  0  0
   -6.1400   -9.1842   23.7154 H   0  0  0  0  0  0  0  0  0  0  0  0
   -5.3764   -7.0339   22.5978 H   0  0  0  0  0  0  0  0  0  0  0  0
  1  2  2  0
  2  3  1  0
  2  4  1  0
  4  5  1  0
  5  6  2  0
  6  7  1  0
  7  8  2  0
  8  9  1  0
  9 10  2  0
 10 11  1  0
 11 12  1  0
 12 13  1  0
 13 14  1  0
 14 15  2  0
 14 16  1  0
 16 17  1  0
 17 18  2  0
 18 19  1  0
 19 20  2  0
 20 21  1  0
 13  4  1  0
 21 17  1  0
 10  5  1  0
  3 22  1  0
  4 23  1  0
  6 24  1  0
  7 25  1  0
  8 26  1  0
  9 27  1  0
 11 28  1  0
 11 29  1  0
 12 30  1  0
 12 31  1  0
 16 32  1  0
 16 33  1  0
 19 34  1  0
 20 35  1  0
 21 36  1  0
M  END
>  <Energy>  (729) 
655.87118739695882

>  <compound_id>  (729) 
66922

>  <target_id>  (729) 
1

>  <reference_id>  (729) 
146

>  <inspiration_ids>  (729) 
[146, 64]

>  <energy_score>  (729) 
554.8880196954592

>  <distance_score>  (729) 
15.438256527358336

>  <path>  (729) 
/opt/xchem-fragalysis-2/maxwin/BulkDock/SCRATCH/511024/C66922-P146/C66922-P146.minimised.mol

>  <scratch_subdir>  (729) 
/opt/xchem-fragalysis-2/maxwin/BulkDock/SCRATCH/511024/C66922-P146

>  <fragmenstein_runtime>  (729) 
22.092112064361572

>  <fragmenstein_outcome>  (729) 
too moved

>  <fragmenstein_mode>  (729) 
expansion

>  <fragmenstein_error>  (729) 


$$$$
C66922-P64
     RDKit          3D

 36 38  0  0  0  0  0  0  0  0999 V2000
   -0.1284   -8.2139   12.9242 O   0  0  0  0  0  0  0  0  0  0  0  0
   -0.0915   -9.3534   12.4821 C   0  0  0  0  0  0  0  0  0  0  0  0
   -1.2313  -10.0706   12.5154 O   0  0  0  0  0  0  0  0  0  0  0  0
    1.0956  -10.0503   11.7819 C   0  0  0  0  0  0  0  0  0  0  0  0
    2.5373   -9.7613   12.3254 C   0  0  0  0  0  0  0  0  0  0  0  0
    2.8467   -8.7328   13.2377 C   0  0  0  0  0  0  0  0  0  0  0  0
    4.1239   -8.6062   13.8028 C   0  0  0  0  0  0  0  0  0  0  0  0
    5.1708   -9.3962   13.3629 C   0  0  0  0  0  0  0  0  0  0  0  0
    4.9270  -10.3521   12.3846 C   0  0  0  0  0  0  0  0  0  0  0  0
    3.6184  -10.5601   11.8819 C   0  0  0  0  0  0  0  0  0  0  0  0
    3.3800  -11.7403   10.9584 C   0  0  0  0  0  0  0  0  0  0  0  0
    1.9401  -11.8987   10.3996 C   0  0  0  0  0  0  0  0  0  0  0  0
    0.9475  -11.4906   11.3802 N   0  0  0  0  0  0  0  0  0  0  0  0
   -0.0014  -12.4150   11.8402 C   0  0  0  0  0  0  0  0  0  0  0  0
    0.2727  -13.0928   12.8315 O   0  0  0  0  0  0  0  0  0  0  0  0
   -1.3222  -12.6636   11.0458 C   0  0  0  0  0  0  0  0  0  0  0  0
   -2.4212  -13.4992   11.7726 C   0  0  0  0  0  0  0  0  0  0  0  0
   -3.7297  -13.5098   11.5411 N   0  0  0  0  0  0  0  0  0  0  0  0
   -4.3020  -14.4178   12.4121 C   0  0  0  0  0  0  0  0  0  0  0  0
   -3.3409  -14.9659   13.2129 C   0  0  0  0  0  0  0  0  0  0  0  0
   -2.1638  -14.3841   12.7888 N   0  0  0  0  0  0  0  0  0  0  0  0
   -1.8819   -9.4713   12.9378 H   0  0  0  0  0  0  0  0  0  0  0  0
    1.0872   -9.5259   10.8117 H   0  0  0  0  0  0  0  0  0  0  0  0
    2.0854   -8.0473   13.6008 H   0  0  0  0  0  0  0  0  0  0  0  0
    4.2885   -7.8991   14.6110 H   0  0  0  0  0  0  0  0  0  0  0  0
    6.1518   -9.2849   13.8074 H   0  0  0  0  0  0  0  0  0  0  0  0
    5.7449  -10.9884   12.0555 H   0  0  0  0  0  0  0  0  0  0  0  0
    3.6076  -12.6449   11.5374 H   0  0  0  0  0  0  0  0  0  0  0  0
    4.0830  -11.7043   10.1179 H   0  0  0  0  0  0  0  0  0  0  0  0
    1.7689  -12.9373   10.0945 H   0  0  0  0  0  0  0  0  0  0  0  0
    1.8108  -11.2684    9.5117 H   0  0  0  0  0  0  0  0  0  0  0  0
   -1.7553  -11.7055   10.7458 H   0  0  0  0  0  0  0  0  0  0  0  0
   -1.0504  -13.2082   10.1341 H   0  0  0  0  0  0  0  0  0  0  0  0
   -5.3682  -14.6005   12.4133 H   0  0  0  0  0  0  0  0  0  0  0  0
   -3.3823  -15.6645   14.0375 H   0  0  0  0  0  0  0  0  0  0  0  0
   -1.2432  -14.4560   13.2077 H   0  0  0  0  0  0  0  0  0  0  0  0
  1  2  2  0
  2  3  1  0
  2  4  1  0
  4  5  1  0
  5  6  2  0
  6  7  1  0
  7  8  2  0
  8  9  1  0
  9 10  2  0
 10 11  1  0
 11 12  1  0
 12 13  1  0
 13 14  1  0
 14 15  2  0
 14 16  1  0
 16 17  1  0
 17 18  2  0
 18 19  1  0
 19 20  2  0
 20 21  1  0
 13  4  1  0
 21 17  1  0
 10  5  1  0
  3 22  1  0
  4 23  1  0
  6 24  1  0
  7 25  1  0
  8 26  1  0
  9 27  1  0
 11 28  1  0
 11 29  1  0
 12 30  1  0
 12 31  1  0
 16 32  1  0
 16 33  1  0
 19 34  1  0
 20 35  1  0
 21 36  1  0
M  END
>  <Energy>  (730) 
99.879998742315962

>  <compound_id>  (730) 
66922

>  <target_id>  (730) 
1

>  <reference_id>  (730) 
64

>  <inspiration_ids>  (730) 
[146, 64]

>  <energy_score>  (730) 
-1.1031689591746954

>  <distance_score>  (730) 
16.486458792991318

>  <path>  (730) 
/opt/xchem-fragalysis-2/maxwin/BulkDock/SCRATCH/511024/C66922-P64/C66922-P64.minimised.mol

>  <scratch_subdir>  (730) 
/opt/xchem-fragalysis-2/maxwin/BulkDock/SCRATCH/511024/C66922-P64

>  <fragmenstein_runtime>  (730) 
18.495295524597168

>  <fragmenstein_outcome>  (730) 
too moved

>  <fragmenstein_mode>  (730) 
expansion

>  <fragmenstein_error>  (730) 


$$$$
C63783-P146
     RDKit          3D

 39 41  0  0  0  0  0  0  0  0999 V2000
    2.3175  -21.0726   18.4535 C   0  0  0  0  0  0  0  0  0  0  0  0
    2.3183  -20.1312   17.1667 C   0  0  0  0  0  0  0  0  0  0  0  0
    2.4916  -21.0649   15.9335 C   0  0  0  0  0  0  0  0  0  0  0  0
    3.7146  -19.2969   17.1544 C   0  0  0  0  0  0  0  0  0  0  0  0
    4.5055  -19.5524   18.0671 O   0  0  0  0  0  0  0  0  0  0  0  0
    4.0917  -18.4157   16.1202 N   0  0  0  0  0  0  0  0  0  0  0  0
    3.5922  -16.7820   16.6262 C   0  0  0  0  0  0  0  0  0  0  0  0
    4.6323  -16.0150   17.8813 C   0  0  0  0  0  0  0  0  0  0  0  0
    5.6945  -15.3577   17.0930 C   0  0  0  0  0  0  0  0  0  0  0  0
    6.6492  -14.3938   17.4044 C   0  0  0  0  0  0  0  0  0  0  0  0
    7.4175  -13.8639   16.3631 C   0  0  0  0  0  0  0  0  0  0  0  0
    7.2051  -14.3046   15.0433 C   0  0  0  0  0  0  0  0  0  0  0  0
    6.2300  -15.2813   14.7493 C   0  0  0  0  0  0  0  0  0  0  0  0
    5.5018  -15.8194   15.8066 C   0  0  0  0  0  0  0  0  0  0  0  0
    4.0192  -16.8142   15.8249 C   0  0  0  0  0  0  0  0  0  0  0  0
    0.8952  -19.5534   17.0962 C   0  0  0  0  0  0  0  0  0  0  0  0
   -0.2935  -20.2898   17.1851 C   0  0  0  0  0  0  0  0  0  0  0  0
   -1.3195  -19.4010   17.0474 N   0  0  0  0  0  0  0  0  0  0  0  0
   -0.7479  -18.1754   16.8770 C   0  0  0  0  0  0  0  0  0  0  0  0
    0.5703  -18.2314   16.9307 N   0  0  0  0  0  0  0  0  0  0  0  0
    2.1838  -20.4894   19.3667 H   0  0  0  0  0  0  0  0  0  0  0  0
    3.2678  -21.6121   18.5418 H   0  0  0  0  0  0  0  0  0  0  0  0
    1.5316  -21.8339   18.4150 H   0  0  0  0  0  0  0  0  0  0  0  0
    1.7372  -21.8598   15.9081 H   0  0  0  0  0  0  0  0  0  0  0  0
    3.4754  -21.5492   15.9336 H   0  0  0  0  0  0  0  0  0  0  0  0
    2.4036  -20.4974   14.9992 H   0  0  0  0  0  0  0  0  0  0  0  0
    2.4389  -16.3687   16.5531 H   0  0  0  0  0  0  0  0  0  0  0  0
    3.0645  -17.2478   17.5535 H   0  0  0  0  0  0  0  0  0  0  0  0
    5.0359  -16.8069   18.5135 H   0  0  0  0  0  0  0  0  0  0  0  0
    3.9970  -15.3035   18.4125 H   0  0  0  0  0  0  0  0  0  0  0  0
    6.7620  -14.0354   18.4227 H   0  0  0  0  0  0  0  0  0  0  0  0
    8.1602  -13.0986   16.5682 H   0  0  0  0  0  0  0  0  0  0  0  0
    7.7874  -13.8717   14.2334 H   0  0  0  0  0  0  0  0  0  0  0  0
    6.0337  -15.5787   13.7252 H   0  0  0  0  0  0  0  0  0  0  0  0
    3.2955  -16.4356   14.8937 H   0  0  0  0  0  0  0  0  0  0  0  0
    4.5506  -17.1982   14.8595 H   0  0  0  0  0  0  0  0  0  0  0  0
   -0.4779  -21.3471   17.3139 H   0  0  0  0  0  0  0  0  0  0  0  0
   -2.3093  -19.6067   17.0522 H   0  0  0  0  0  0  0  0  0  0  0  0
   -1.3314  -17.2757   16.7306 H   0  0  0  0  0  0  0  0  0  0  0  0
  1  2  1  0
  2  3  1  0
  2  4  1  0
  4  5  2  0
  4  6  1  0
  6  7  1  0
  7  8  1  0
  8  9  1  0
  9 10  2  0
 10 11  1  0
 11 12  2  0
 12 13  1  0
 13 14  2  0
 14 15  1  0
  2 16  1  0
 16 17  2  0
 17 18  1  0
 18 19  1  0
 19 20  2  0
 15  6  1  0
 20 16  1  0
 14  9  1  0
  1 21  1  0
  1 22  1  0
  1 23  1  0
  3 24  1  0
  3 25  1  0
  3 26  1  0
  7 27  1  0
  7 28  1  0
  8 29  1  0
  8 30  1  0
 10 31  1  0
 11 32  1  0
 12 33  1  0
 13 34  1  0
 15 35  1  0
 15 36  1  0
 17 37  1  0
 18 38  1  0
 19 39  1  0
M  END
>  <Energy>  (731) 
632.94015799165788

>  <compound_id>  (731) 
63783

>  <target_id>  (731) 
1

>  <reference_id>  (731) 
146

>  <inspiration_ids>  (731) 
[146, 64]

>  <energy_score>  (731) 
531.675536065861

>  <distance_score>  (731) 
16.264465091625006

>  <path>  (731) 
/opt/xchem-fragalysis-2/maxwin/BulkDock/SCRATCH/511024/C63783-P146/C63783-P146.minimised.mol

>  <scratch_subdir>  (731) 
/opt/xchem-fragalysis-2/maxwin/BulkDock/SCRATCH/511024/C63783-P146

>  <fragmenstein_runtime>  (731) 
19.679923057556152

>  <fragmenstein_outcome>  (731) 
too moved

>  <fragmenstein_mode>  (731) 
expansion

>  <fragmenstein_error>  (731) 


$$$$
C63783-P64
     RDKit          3D

 39 41  0  0  0  0  0  0  0  0999 V2000
    2.9547  -22.8593   19.9930 C   0  0  0  0  0  0  0  0  0  0  0  0
    3.2981  -22.1676   21.3165 C   0  0  0  0  0  0  0  0  0  0  0  0
    4.4575  -22.8946   22.0061 C   0  0  0  0  0  0  0  0  0  0  0  0
    3.7062  -20.6593   21.0205 C   0  0  0  0  0  0  0  0  0  0  0  0
    2.8112  -19.8262   21.1504 O   0  0  0  0  0  0  0  0  0  0  0  0
    4.9850  -20.1257   20.7363 N   0  0  0  0  0  0  0  0  0  0  0  0
    5.9060  -19.7729   21.8258 C   0  0  0  0  0  0  0  0  0  0  0  0
    7.2462  -19.0641   21.4240 C   0  0  0  0  0  0  0  0  0  0  0  0
    7.1410  -18.1321   20.2454 C   0  0  0  0  0  0  0  0  0  0  0  0
    7.9294  -16.9581   20.1340 C   0  0  0  0  0  0  0  0  0  0  0  0
    7.7835  -16.1083   19.0382 C   0  0  0  0  0  0  0  0  0  0  0  0
    6.8710  -16.4491   18.0420 C   0  0  0  0  0  0  0  0  0  0  0  0
    6.1240  -17.6451   18.1282 C   0  0  0  0  0  0  0  0  0  0  0  0
    6.2445  -18.5121   19.2310 C   0  0  0  0  0  0  0  0  0  0  0  0
    5.4904  -19.8811   19.3616 C   0  0  0  0  0  0  0  0  0  0  0  0
    1.9592  -22.3276   22.1875 C   0  0  0  0  0  0  0  0  0  0  0  0
    0.7849  -21.5859   22.1935 C   0  0  0  0  0  0  0  0  0  0  0  0
   -0.1087  -22.2513   22.9888 N   0  0  0  0  0  0  0  0  0  0  0  0
    0.5062  -23.3850   23.4261 C   0  0  0  0  0  0  0  0  0  0  0  0
    1.7363  -23.4705   22.9634 N   0  0  0  0  0  0  0  0  0  0  0  0
    2.1313  -22.3509   19.4770 H   0  0  0  0  0  0  0  0  0  0  0  0
    2.6639  -23.9062   20.1384 H   0  0  0  0  0  0  0  0  0  0  0  0
    3.8139  -22.8423   19.3124 H   0  0  0  0  0  0  0  0  0  0  0  0
    4.2380  -23.9578   22.1564 H   0  0  0  0  0  0  0  0  0  0  0  0
    5.3774  -22.8332   21.4144 H   0  0  0  0  0  0  0  0  0  0  0  0
    4.6602  -22.4601   22.9914 H   0  0  0  0  0  0  0  0  0  0  0  0
    5.3479  -19.1372   22.5209 H   0  0  0  0  0  0  0  0  0  0  0  0
    6.1437  -20.6832   22.3855 H   0  0  0  0  0  0  0  0  0  0  0  0
    7.6360  -18.5375   22.3029 H   0  0  0  0  0  0  0  0  0  0  0  0
    7.9800  -19.8376   21.1627 H   0  0  0  0  0  0  0  0  0  0  0  0
    8.6403  -16.7031   20.9156 H   0  0  0  0  0  0  0  0  0  0  0  0
    8.3632  -15.1939   18.9605 H   0  0  0  0  0  0  0  0  0  0  0  0
    6.7302  -15.7926   17.1859 H   0  0  0  0  0  0  0  0  0  0  0  0
    5.4309  -17.8855   17.3239 H   0  0  0  0  0  0  0  0  0  0  0  0
    6.1858  -20.6897   19.1103 H   0  0  0  0  0  0  0  0  0  0  0  0
    4.6445  -19.9177   18.6676 H   0  0  0  0  0  0  0  0  0  0  0  0
    0.5231  -20.6613   21.6960 H   0  0  0  0  0  0  0  0  0  0  0  0
   -1.0548  -21.9651   23.1932 H   0  0  0  0  0  0  0  0  0  0  0  0
    0.0192  -24.1068   24.0671 H   0  0  0  0  0  0  0  0  0  0  0  0
  1  2  1  0
  2  3  1  0
  2  4  1  0
  4  5  2  0
  4  6  1  0
  6  7  1  0
  7  8  1  0
  8  9  1  0
  9 10  2  0
 10 11  1  0
 11 12  2  0
 12 13  1  0
 13 14  2  0
 14 15  1  0
  2 16  1  0
 16 17  2  0
 17 18  1  0
 18 19  1  0
 19 20  2  0
 15  6  1  0
 20 16  1  0
 14  9  1  0
  1 21  1  0
  1 22  1  0
  1 23  1  0
  3 24  1  0
  3 25  1  0
  3 26  1  0
  7 27  1  0
  7 28  1  0
  8 29  1  0
  8 30  1  0
 10 31  1  0
 11 32  1  0
 12 33  1  0
 13 34  1  0
 15 35  1  0
 15 36  1  0
 17 37  1  0
 18 38  1  0
 19 39  1  0
M  END
>  <Energy>  (732) 
91.580145301067944

>  <compound_id>  (732) 
63783

>  <target_id>  (732) 
1

>  <reference_id>  (732) 
64

>  <inspiration_ids>  (732) 
[146, 64]

>  <energy_score>  (732) 
-9.684476624725676

>  <distance_score>  (732) 
16.71427844476862

>  <path>  (732) 
/opt/xchem-fragalysis-2/maxwin/BulkDock/SCRATCH/511024/C63783-P64/C63783-P64.minimised.mol

>  <scratch_subdir>  (732) 
/opt/xchem-fragalysis-2/maxwin/BulkDock/SCRATCH/511024/C63783-P64

>  <fragmenstein_runtime>  (732) 
19.71902370452881

>  <fragmenstein_outcome>  (732) 
too moved

>  <fragmenstein_mode>  (732) 
expansion

>  <fragmenstein_error>  (732) 


$$$$
C63784-P146
     RDKit          3D

 43 45  0  0  0  0  0  0  0  0999 V2000
    6.2819  -13.4223   15.7823 C   0  0  0  0  0  0  0  0  0  0  0  0
    6.1804  -12.2305   14.6950 C   0  0  0  0  0  0  0  0  0  0  0  0
    7.1852  -12.5510   13.5676 C   0  0  0  0  0  0  0  0  0  0  0  0
    6.7219  -10.9098   15.4554 C   0  0  0  0  0  0  0  0  0  0  0  0
    7.2446  -11.1517   16.5494 O   0  0  0  0  0  0  0  0  0  0  0  0
    6.5484   -9.5532   15.0323 N   0  0  0  0  0  0  0  0  0  0  0  0
    7.8286   -9.1620   14.2208 C   0  0  0  0  0  0  0  0  0  0  0  0
    9.3786   -9.1490   15.1859 C   0  0  0  0  0  0  0  0  0  0  0  0
    9.6596   -7.5137   15.3221 C   0  0  0  0  0  0  0  0  0  0  0  0
   11.1482   -6.4915   15.9512 C   0  0  0  0  0  0  0  0  0  0  0  0
   11.3806   -4.8376   16.1421 C   0  0  0  0  0  0  0  0  0  0  0  0
   10.3790   -4.0373   15.3449 C   0  0  0  0  0  0  0  0  0  0  0  0
   11.0571   -2.8304   14.7170 C   0  0  0  0  0  0  0  0  0  0  0  0
   11.5404   -1.8871   15.6900 N   0  0  0  0  0  0  0  0  0  0  0  0
   11.1699   -2.8487   13.5290 O   0  0  0  0  0  0  0  0  0  0  0  0
    8.9668   -4.9301   14.6548 C   0  0  0  0  0  0  0  0  0  0  0  0
    8.5602   -6.7965   14.7548 C   0  0  0  0  0  0  0  0  0  0  0  0
    7.5263   -8.2774   14.0824 C   0  0  0  0  0  0  0  0  0  0  0  0
    4.7418  -12.3507   14.1298 C   0  0  0  0  0  0  0  0  0  0  0  0
    4.2285  -13.4531   13.4331 C   0  0  0  0  0  0  0  0  0  0  0  0
    2.8919  -13.2302   13.2538 N   0  0  0  0  0  0  0  0  0  0  0  0
    2.6609  -11.9673   13.7015 C   0  0  0  0  0  0  0  0  0  0  0  0
    3.6883  -11.4937   14.3835 N   0  0  0  0  0  0  0  0  0  0  0  0
    5.9145  -14.3757   15.3894 H   0  0  0  0  0  0  0  0  0  0  0  0
    7.3307  -13.5830   16.0623 H   0  0  0  0  0  0  0  0  0  0  0  0
    5.7425  -13.1666   16.6992 H   0  0  0  0  0  0  0  0  0  0  0  0
    7.0693  -11.8560   12.7288 H   0  0  0  0  0  0  0  0  0  0  0  0
    8.2199  -12.4852   13.9223 H   0  0  0  0  0  0  0  0  0  0  0  0
    7.0486  -13.5639   13.1719 H   0  0  0  0  0  0  0  0  0  0  0  0
    7.8573   -9.6856   13.0731 H   0  0  0  0  0  0  0  0  0  0  0  0
    8.1851  -10.2544   14.2432 H   0  0  0  0  0  0  0  0  0  0  0  0
    9.2818   -9.7270   16.1146 H   0  0  0  0  0  0  0  0  0  0  0  0
   10.0654   -9.7866   14.6357 H   0  0  0  0  0  0  0  0  0  0  0  0
   11.1138   -6.1928   14.8798 H   0  0  0  0  0  0  0  0  0  0  0  0
   12.2994   -4.4807   16.5902 H   0  0  0  0  0  0  0  0  0  0  0  0
   11.3541   -2.2541   16.6357 H   0  0  0  0  0  0  0  0  0  0  0  0
   11.1548   -2.1296   16.6128 H   0  0  0  0  0  0  0  0  0  0  0  0
   10.1294   -4.7993   14.0311 H   0  0  0  0  0  0  0  0  0  0  0  0
    6.5596   -7.6980   14.4237 H   0  0  0  0  0  0  0  0  0  0  0  0
    7.1784   -8.0046   12.9531 H   0  0  0  0  0  0  0  0  0  0  0  0
    4.6922  -14.3753   13.1127 H   0  0  0  0  0  0  0  0  0  0  0  0
    2.2364  -13.8343   12.7768 H   0  0  0  0  0  0  0  0  0  0  0  0
    1.7336  -11.4464   13.5144 H   0  0  0  0  0  0  0  0  0  0  0  0
  1  2  1  0
  2  3  1  0
  2  4  1  0
  4  5  2  0
  4  6  1  0
  6  7  1  0
  7  8  1  0
  8  9  1  0
  9 10  2  0
 10 11  1  0
 11 12  2  0
 12 13  1  0
 13 14  1  0
 13 15  2  0
 12 16  1  0
 16 17  2  0
 17 18  1  0
  2 19  1  0
 19 20  2  0
 20 21  1  0
 21 22  1  0
 22 23  2  0
 18  6  1  0
 23 19  1  0
 17  9  1  0
  1 24  1  0
  1 25  1  0
  1 26  1  0
  3 27  1  0
  3 28  1  0
  3 29  1  0
  7 30  1  0
  7 31  1  0
  8 32  1  0
  8 33  1  0
 10 34  1  0
 11 35  1  0
 14 36  1  0
 14 37  1  0
 16 38  1  0
 18 39  1  0
 18 40  1  0
 20 41  1  0
 21 42  1  0
 22 43  1  0
M  END
>  <Energy>  (733) 
1251.8728606808293

>  <compound_id>  (733) 
63784

>  <target_id>  (733) 
1

>  <reference_id>  (733) 
146

>  <inspiration_ids>  (733) 
[146, 64]

>  <energy_score>  (733) 
1164.7274922571303

>  <distance_score>  (733) 
16.224543118370857

>  <path>  (733) 
/opt/xchem-fragalysis-2/maxwin/BulkDock/SCRATCH/511024/C63784-P146/C63784-P146.minimised.mol

>  <scratch_subdir>  (733) 
/opt/xchem-fragalysis-2/maxwin/BulkDock/SCRATCH/511024/C63784-P146

>  <fragmenstein_runtime>  (733) 
25.997032165527344

>  <fragmenstein_outcome>  (733) 
too moved

>  <fragmenstein_mode>  (733) 
expansion

>  <fragmenstein_error>  (733) 


$$$$
C63784-P64
     RDKit          3D

 43 45  0  0  0  0  0  0  0  0999 V2000
    4.0955  -21.0119   26.7876 C   0  0  0  0  0  0  0  0  0  0  0  0
    3.4034  -19.6468   26.8980 C   0  0  0  0  0  0  0  0  0  0  0  0
    3.6562  -19.0779   28.3068 C   0  0  0  0  0  0  0  0  0  0  0  0
    3.9968  -18.6172   25.8242 C   0  0  0  0  0  0  0  0  0  0  0  0
    3.3388  -18.3369   24.8225 O   0  0  0  0  0  0  0  0  0  0  0  0
    5.1924  -17.8930   25.9717 N   0  0  0  0  0  0  0  0  0  0  0  0
    5.2386  -16.6246   26.6961 C   0  0  0  0  0  0  0  0  0  0  0  0
    5.7857  -15.4600   25.8389 C   0  0  0  0  0  0  0  0  0  0  0  0
    7.0511  -15.7995   25.0840 C   0  0  0  0  0  0  0  0  0  0  0  0
    7.8994  -14.7723   24.5944 C   0  0  0  0  0  0  0  0  0  0  0  0
    8.9871  -15.0732   23.7742 C   0  0  0  0  0  0  0  0  0  0  0  0
    9.2414  -16.4131   23.4633 C   0  0  0  0  0  0  0  0  0  0  0  0
   10.3496  -16.7340   22.6209 C   0  0  0  0  0  0  0  0  0  0  0  0
   11.0115  -16.6483   22.1123 N   0  0  0  0  0  0  0  0  0  0  0  0
   10.6562  -18.5007   22.4677 O   0  0  0  0  0  0  0  0  0  0  0  0
    8.4219  -17.4350   23.9757 C   0  0  0  0  0  0  0  0  0  0  0  0
    7.3156  -17.1549   24.7977 C   0  0  0  0  0  0  0  0  0  0  0  0
    6.4878  -18.3227   25.4257 C   0  0  0  0  0  0  0  0  0  0  0  0
    1.8514  -19.9490   26.7257 C   0  0  0  0  0  0  0  0  0  0  0  0
    1.1488  -20.3930   25.6149 C   0  0  0  0  0  0  0  0  0  0  0  0
   -0.1253  -20.6769   26.0326 N   0  0  0  0  0  0  0  0  0  0  0  0
   -0.1821  -20.4111   27.3673 C   0  0  0  0  0  0  0  0  0  0  0  0
    0.9791  -19.9825   27.8167 N   0  0  0  0  0  0  0  0  0  0  0  0
    5.1744  -20.9163   26.9556 H   0  0  0  0  0  0  0  0  0  0  0  0
    3.9687  -21.4406   25.7865 H   0  0  0  0  0  0  0  0  0  0  0  0
    3.7030  -21.7320   27.5148 H   0  0  0  0  0  0  0  0  0  0  0  0
    3.1437  -18.1183   28.4405 H   0  0  0  0  0  0  0  0  0  0  0  0
    4.7239  -18.9159   28.4903 H   0  0  0  0  0  0  0  0  0  0  0  0
    3.2947  -19.7562   29.0885 H   0  0  0  0  0  0  0  0  0  0  0  0
    5.8943  -16.7796   27.5622 H   0  0  0  0  0  0  0  0  0  0  0  0
    4.2470  -16.3801   27.0835 H   0  0  0  0  0  0  0  0  0  0  0  0
    5.9471  -14.5882   26.4823 H   0  0  0  0  0  0  0  0  0  0  0  0
    5.0193  -15.2087   25.1017 H   0  0  0  0  0  0  0  0  0  0  0  0
    7.6868  -13.7340   24.8401 H   0  0  0  0  0  0  0  0  0  0  0  0
    9.6174  -14.2761   23.3937 H   0  0  0  0  0  0  0  0  0  0  0  0
   11.5610  -15.9817   21.5542 H   0  0  0  0  0  0  0  0  0  0  0  0
   11.6655  -15.9756   21.6914 H   0  0  0  0  0  0  0  0  0  0  0  0
    8.6570  -18.4733   23.7381 H   0  0  0  0  0  0  0  0  0  0  0  0
    7.0667  -18.7520   26.2510 H   0  0  0  0  0  0  0  0  0  0  0  0
    6.3067  -19.0969   24.6723 H   0  0  0  0  0  0  0  0  0  0  0  0
    1.4602  -20.5421   24.5888 H   0  0  0  0  0  0  0  0  0  0  0  0
   -0.8705  -21.0509   25.4622 H   0  0  0  0  0  0  0  0  0  0  0  0
   -1.0765  -20.5543   27.9584 H   0  0  0  0  0  0  0  0  0  0  0  0
  1  2  1  0
  2  3  1  0
  2  4  1  0
  4  5  2  0
  4  6  1  0
  6  7  1  0
  7  8  1  0
  8  9  1  0
  9 10  2  0
 10 11  1  0
 11 12  2  0
 12 13  1  0
 13 14  1  0
 13 15  2  0
 12 16  1  0
 16 17  2  0
 17 18  1  0
  2 19  1  0
 19 20  2  0
 20 21  1  0
 21 22  1  0
 22 23  2  0
 18  6  1  0
 23 19  1  0
 17  9  1  0
  1 24  1  0
  1 25  1  0
  1 26  1  0
  3 27  1  0
  3 28  1  0
  3 29  1  0
  7 30  1  0
  7 31  1  0
  8 32  1  0
  8 33  1  0
 10 34  1  0
 11 35  1  0
 14 36  1  0
 14 37  1  0
 16 38  1  0
 18 39  1  0
 18 40  1  0
 20 41  1  0
 21 42  1  0
 22 43  1  0
M  END
>  <Energy>  (734) 
794.5651898561722

>  <compound_id>  (734) 
63784

>  <target_id>  (734) 
1

>  <reference_id>  (734) 
64

>  <inspiration_ids>  (734) 
[146, 64]

>  <energy_score>  (734) 
707.4198214324936

>  <distance_score>  (734) 
16.621205093503665

>  <path>  (734) 
/opt/xchem-fragalysis-2/maxwin/BulkDock/SCRATCH/511024/C63784-P64/C63784-P64.minimised.mol

>  <scratch_subdir>  (734) 
/opt/xchem-fragalysis-2/maxwin/BulkDock/SCRATCH/511024/C63784-P64

>  <fragmenstein_runtime>  (734) 
27.196993827819824

>  <fragmenstein_outcome>  (734) 
too moved

>  <fragmenstein_mode>  (734) 
expansion

>  <fragmenstein_error>  (734) 


$$$$
C63785-P146
     RDKit          3D

 39 41  0  0  0  0  0  0  0  0999 V2000
    1.1887  -13.8655   29.2335 C   0  0  0  0  0  0  0  0  0  0  0  0
    2.2156  -15.0118   29.2898 C   0  0  0  0  0  0  0  0  0  0  0  0
    2.6466  -15.1821   30.7656 C   0  0  0  0  0  0  0  0  0  0  0  0
    3.6018  -14.6606   28.4880 C   0  0  0  0  0  0  0  0  0  0  0  0
    4.1378  -15.4932   27.7621 O   0  0  0  0  0  0  0  0  0  0  0  0
    4.2217  -13.3985   28.7448 N   0  0  0  0  0  0  0  0  0  0  0  0
    3.6082  -12.2374   27.4695 C   0  0  0  0  0  0  0  0  0  0  0  0
    4.2627  -12.1676   25.8103 C   0  0  0  0  0  0  0  0  0  0  0  0
    5.4689  -11.3308   25.9769 C   0  0  0  0  0  0  0  0  0  0  0  0
    6.3219  -10.6711   25.0941 C   0  0  0  0  0  0  0  0  0  0  0  0
    7.4033   -9.9588   25.6215 C   0  0  0  0  0  0  0  0  0  0  0  0
    8.5055   -9.1614   24.5758 Cl  0  0  0  0  0  0  0  0  0  0  0  0
    7.5959   -9.8868   27.0080 C   0  0  0  0  0  0  0  0  0  0  0  0
    6.7060  -10.5303   27.8873 C   0  0  0  0  0  0  0  0  0  0  0  0
    5.6598  -11.2703   27.3420 C   0  0  0  0  0  0  0  0  0  0  0  0
    4.2240  -11.9977   28.1152 C   0  0  0  0  0  0  0  0  0  0  0  0
    1.4443  -16.3291   28.8747 C   0  0  0  0  0  0  0  0  0  0  0  0
    1.8834  -17.5755   28.4700 C   0  0  0  0  0  0  0  0  0  0  0  0
    0.7673  -18.3684   28.3281 N   0  0  0  0  0  0  0  0  0  0  0  0
   -0.3181  -17.6191   28.6666 C   0  0  0  0  0  0  0  0  0  0  0  0
    0.0469  -16.4029   29.0082 N   0  0  0  0  0  0  0  0  0  0  0  0
    0.3038  -14.0594   29.8502 H   0  0  0  0  0  0  0  0  0  0  0  0
    0.8564  -13.6815   28.2078 H   0  0  0  0  0  0  0  0  0  0  0  0
    1.6245  -12.9290   29.5991 H   0  0  0  0  0  0  0  0  0  0  0  0
    1.7940  -15.4317   31.4081 H   0  0  0  0  0  0  0  0  0  0  0  0
    3.3830  -15.9883   30.8667 H   0  0  0  0  0  0  0  0  0  0  0  0
    3.1062  -14.2686   31.1592 H   0  0  0  0  0  0  0  0  0  0  0  0
    2.5291  -11.6959   27.5916 H   0  0  0  0  0  0  0  0  0  0  0  0
    2.9160  -13.0709   27.0468 H   0  0  0  0  0  0  0  0  0  0  0  0
    3.5074  -11.6923   25.1778 H   0  0  0  0  0  0  0  0  0  0  0  0
    4.4769  -13.1962   25.5115 H   0  0  0  0  0  0  0  0  0  0  0  0
    6.1553  -10.6993   24.0244 H   0  0  0  0  0  0  0  0  0  0  0  0
    8.4309   -9.3220   27.4160 H   0  0  0  0  0  0  0  0  0  0  0  0
    6.8354  -10.4417   28.9618 H   0  0  0  0  0  0  0  0  0  0  0  0
    4.9692  -11.8783   28.9990 H   0  0  0  0  0  0  0  0  0  0  0  0
    3.7450  -11.1014   28.8374 H   0  0  0  0  0  0  0  0  0  0  0  0
    2.8763  -17.9577   28.2740 H   0  0  0  0  0  0  0  0  0  0  0  0
    0.7593  -19.3362   28.0365 H   0  0  0  0  0  0  0  0  0  0  0  0
   -1.3296  -18.0021   28.6511 H   0  0  0  0  0  0  0  0  0  0  0  0
  1  2  1  0
  2  3  1  0
  2  4  1  0
  4  5  2  0
  4  6  1  0
  6  7  1  0
  7  8  1  0
  8  9  1  0
  9 10  2  0
 10 11  1  0
 11 12  1  0
 11 13  2  0
 13 14  1  0
 14 15  2  0
 15 16  1  0
  2 17  1  0
 17 18  2  0
 18 19  1  0
 19 20  1  0
 20 21  2  0
 16  6  1  0
 21 17  1  0
 15  9  1  0
  1 22  1  0
  1 23  1  0
  1 24  1  0
  3 25  1  0
  3 26  1  0
  3 27  1  0
  7 28  1  0
  7 29  1  0
  8 30  1  0
  8 31  1  0
 10 32  1  0
 13 33  1  0
 14 34  1  0
 16 35  1  0
 16 36  1  0
 18 37  1  0
 19 38  1  0
 20 39  1  0
M  END
>  <Energy>  (735) 
629.05619322152677

>  <compound_id>  (735) 
63785

>  <target_id>  (735) 
1

>  <reference_id>  (735) 
146

>  <inspiration_ids>  (735) 
[146, 64]

>  <energy_score>  (735) 
550.5756242416985

>  <distance_score>  (735) 
16.091613249359686

>  <path>  (735) 
/opt/xchem-fragalysis-2/maxwin/BulkDock/SCRATCH/511024/C63785-P146/C63785-P146.minimised.mol

>  <scratch_subdir>  (735) 
/opt/xchem-fragalysis-2/maxwin/BulkDock/SCRATCH/511024/C63785-P146

>  <fragmenstein_runtime>  (735) 
28.401598691940308

>  <fragmenstein_outcome>  (735) 
too moved

>  <fragmenstein_mode>  (735) 
expansion

>  <fragmenstein_error>  (735) 


$$$$
C63785-P64
     RDKit          3D

 39 41  0  0  0  0  0  0  0  0999 V2000
   -1.0028   -8.0258   22.7795 C   0  0  0  0  0  0  0  0  0  0  0  0
   -1.7381   -9.0150   21.8855 C   0  0  0  0  0  0  0  0  0  0  0  0
   -1.8217   -8.2462   20.5062 C   0  0  0  0  0  0  0  0  0  0  0  0
   -1.0031  -10.3797   21.3684 C   0  0  0  0  0  0  0  0  0  0  0  0
   -1.7645  -11.1415   20.7520 O   0  0  0  0  0  0  0  0  0  0  0  0
    0.4806  -10.6893   21.4707 N   0  0  0  0  0  0  0  0  0  0  0  0
    0.7442  -11.6253   22.8844 C   0  0  0  0  0  0  0  0  0  0  0  0
    2.1449  -12.5100   24.1316 C   0  0  0  0  0  0  0  0  0  0  0  0
    3.7593  -12.5981   23.7584 C   0  0  0  0  0  0  0  0  0  0  0  0
    5.4798  -11.9511   24.4501 C   0  0  0  0  0  0  0  0  0  0  0  0
    6.4381  -11.0250   23.7922 C   0  0  0  0  0  0  0  0  0  0  0  0
    7.9287  -10.5954   24.4940 Cl  0  0  0  0  0  0  0  0  0  0  0  0
    6.0343  -10.6073   22.5220 C   0  0  0  0  0  0  0  0  0  0  0  0
    4.6650  -11.2157   21.8829 C   0  0  0  0  0  0  0  0  0  0  0  0
    3.3925  -12.1222   22.4423 C   0  0  0  0  0  0  0  0  0  0  0  0
    1.4678  -11.5570   22.5591 C   0  0  0  0  0  0  0  0  0  0  0  0
   -3.2473   -9.2017   22.3494 C   0  0  0  0  0  0  0  0  0  0  0  0
   -3.8166   -9.2053   23.6226 C   0  0  0  0  0  0  0  0  0  0  0  0
   -5.1549   -9.4709   23.4465 N   0  0  0  0  0  0  0  0  0  0  0  0
   -5.3845   -9.5370   22.1048 C   0  0  0  0  0  0  0  0  0  0  0  0
   -4.2712   -9.3694   21.4259 N   0  0  0  0  0  0  0  0  0  0  0  0
    0.0538   -8.2583   22.8911 H   0  0  0  0  0  0  0  0  0  0  0  0
   -1.0053   -7.0148   22.3467 H   0  0  0  0  0  0  0  0  0  0  0  0
   -1.4647   -7.8485   23.7549 H   0  0  0  0  0  0  0  0  0  0  0  0
   -0.8200   -7.9949   20.1359 H   0  0  0  0  0  0  0  0  0  0  0  0
   -2.3956   -7.3154   20.5978 H   0  0  0  0  0  0  0  0  0  0  0  0
   -2.3111   -8.8454   19.7285 H   0  0  0  0  0  0  0  0  0  0  0  0
   -0.1172  -12.4434   22.7126 H   0  0  0  0  0  0  0  0  0  0  0  0
    0.0983  -10.6938   23.2229 H   0  0  0  0  0  0  0  0  0  0  0  0
    2.1324  -13.5336   23.8186 H   0  0  0  0  0  0  0  0  0  0  0  0
    1.7490  -12.6717   25.1316 H   0  0  0  0  0  0  0  0  0  0  0  0
    5.7930  -12.3562   25.4429 H   0  0  0  0  0  0  0  0  0  0  0  0
    6.7395  -10.1333   21.8414 H   0  0  0  0  0  0  0  0  0  0  0  0
    5.0401  -11.6813   20.9101 H   0  0  0  0  0  0  0  0  0  0  0  0
    1.3435  -10.2449   21.7329 H   0  0  0  0  0  0  0  0  0  0  0  0
    2.6481  -11.0855   23.0288 H   0  0  0  0  0  0  0  0  0  0  0  0
   -3.4056   -9.0825   24.6122 H   0  0  0  0  0  0  0  0  0  0  0  0
   -5.8454   -9.6144   24.1683 H   0  0  0  0  0  0  0  0  0  0  0  0
   -6.3598   -9.7339   21.6834 H   0  0  0  0  0  0  0  0  0  0  0  0
  1  2  1  0
  2  3  1  0
  2  4  1  0
  4  5  2  0
  4  6  1  0
  6  7  1  0
  7  8  1  0
  8  9  1  0
  9 10  2  0
 10 11  1  0
 11 12  1  0
 11 13  2  0
 13 14  1  0
 14 15  2  0
 15 16  1  0
  2 17  1  0
 17 18  2  0
 18 19  1  0
 19 20  1  0
 20 21  2  0
 16  6  1  0
 21 17  1  0
 15  9  1  0
  1 22  1  0
  1 23  1  0
  1 24  1  0
  3 25  1  0
  3 26  1  0
  3 27  1  0
  7 28  1  0
  7 29  1  0
  8 30  1  0
  8 31  1  0
 10 32  1  0
 13 33  1  0
 14 34  1  0
 16 35  1  0
 16 36  1  0
 18 37  1  0
 19 38  1  0
 20 39  1  0
M  END
>  <Energy>  (736) 
1271.0619556878323

>  <compound_id>  (736) 
63785

>  <target_id>  (736) 
1

>  <reference_id>  (736) 
64

>  <inspiration_ids>  (736) 
[146, 64]

>  <energy_score>  (736) 
1192.5813867080187

>  <distance_score>  (736) 
17.083314788963197

>  <path>  (736) 
/opt/xchem-fragalysis-2/maxwin/BulkDock/SCRATCH/511024/C63785-P64/C63785-P64.minimised.mol

>  <scratch_subdir>  (736) 
/opt/xchem-fragalysis-2/maxwin/BulkDock/SCRATCH/511024/C63785-P64

>  <fragmenstein_runtime>  (736) 
16.223843097686768

>  <fragmenstein_outcome>  (736) 
too moved

>  <fragmenstein_mode>  (736) 
expansion

>  <fragmenstein_error>  (736) 


$$$$
C63786-P146
     RDKit          3D

 43 45  0  0  0  0  0  0  0  0999 V2000
    2.4851  -16.7837   17.7928 C   0  0  0  0  0  0  0  0  0  0  0  0
    2.4844  -18.0928   16.9870 C   0  0  0  0  0  0  0  0  0  0  0  0
    3.1537  -19.2654   17.7627 C   0  0  0  0  0  0  0  0  0  0  0  0
    3.3722  -17.8592   15.6673 C   0  0  0  0  0  0  0  0  0  0  0  0
    3.3281  -18.7052   14.7773 O   0  0  0  0  0  0  0  0  0  0  0  0
    4.0996  -16.6320   15.5222 N   0  0  0  0  0  0  0  0  0  0  0  0
    5.3903  -16.1947   15.7773 C   0  0  0  0  0  0  0  0  0  0  0  0
    6.2348  -14.6534   15.6467 C   0  0  0  0  0  0  0  0  0  0  0  0
    6.1501  -13.5738   14.7782 C   0  0  0  0  0  0  0  0  0  0  0  0
    6.9993  -12.4784   15.0179 C   0  0  0  0  0  0  0  0  0  0  0  0
    7.9010  -12.4821   16.0993 C   0  0  0  0  0  0  0  0  0  0  0  0
    7.9717  -13.5894   16.9560 C   0  0  0  0  0  0  0  0  0  0  0  0
    7.1378  -14.6747   16.7054 C   0  0  0  0  0  0  0  0  0  0  0  0
    6.8899  -15.9928   17.3900 C   0  0  0  0  0  0  0  0  0  0  0  0
    8.1457  -16.8148   17.6786 C   0  0  0  0  0  0  0  0  0  0  0  0
    8.7370  -16.4269   18.9147 O   0  0  0  0  0  0  0  0  0  0  0  0
    5.8661  -16.9371   16.1835 C   0  0  0  0  0  0  0  0  0  0  0  0
    0.9804  -18.5624   16.7828 C   0  0  0  0  0  0  0  0  0  0  0  0
   -0.1629  -17.8278   16.5066 C   0  0  0  0  0  0  0  0  0  0  0  0
   -1.2327  -18.6790   16.6654 N   0  0  0  0  0  0  0  0  0  0  0  0
   -0.7432  -19.8963   17.0328 C   0  0  0  0  0  0  0  0  0  0  0  0
    0.5663  -19.8585   17.1408 N   0  0  0  0  0  0  0  0  0  0  0  0
    1.8238  -16.8265   18.6547 H   0  0  0  0  0  0  0  0  0  0  0  0
    2.1238  -15.9475   17.1835 H   0  0  0  0  0  0  0  0  0  0  0  0
    3.4855  -16.5281   18.1556 H   0  0  0  0  0  0  0  0  0  0  0  0
    2.6035  -19.5753   18.6512 H   0  0  0  0  0  0  0  0  0  0  0  0
    3.2307  -20.1522   17.1196 H   0  0  0  0  0  0  0  0  0  0  0  0
    4.1791  -19.0141   18.0409 H   0  0  0  0  0  0  0  0  0  0  0  0
    5.4311  -16.0268   14.6085 H   0  0  0  0  0  0  0  0  0  0  0  0
    4.7810  -15.4618   16.4644 H   0  0  0  0  0  0  0  0  0  0  0  0
    5.4413  -13.5717   13.9570 H   0  0  0  0  0  0  0  0  0  0  0  0
    6.9518  -11.6102   14.3642 H   0  0  0  0  0  0  0  0  0  0  0  0
    8.5337  -11.6146   16.2733 H   0  0  0  0  0  0  0  0  0  0  0  0
    8.6510  -13.5720   17.7997 H   0  0  0  0  0  0  0  0  0  0  0  0
    6.2752  -15.8506   18.2888 H   0  0  0  0  0  0  0  0  0  0  0  0
    8.8942  -16.7249   16.8843 H   0  0  0  0  0  0  0  0  0  0  0  0
    7.8870  -17.8734   17.7785 H   0  0  0  0  0  0  0  0  0  0  0  0
    9.0092  -15.4979   18.8298 H   0  0  0  0  0  0  0  0  0  0  0  0
    5.6186  -17.8203   16.8826 H   0  0  0  0  0  0  0  0  0  0  0  0
    6.5359  -17.6016   15.4590 H   0  0  0  0  0  0  0  0  0  0  0  0
   -0.3053  -16.7888   16.2448 H   0  0  0  0  0  0  0  0  0  0  0  0
   -2.2061  -18.4462   16.5268 H   0  0  0  0  0  0  0  0  0  0  0  0
   -1.3741  -20.7554   17.2155 H   0  0  0  0  0  0  0  0  0  0  0  0
  1  2  1  0
  2  3  1  0
  2  4  1  0
  4  5  2  0
  4  6  1  0
  6  7  1  0
  7  8  1  0
  8  9  2  0
  9 10  1  0
 10 11  2  0
 11 12  1  0
 12 13  2  0
 13 14  1  0
 14 15  1  0
 15 16  1  0
 14 17  1  0
  2 18  1  0
 18 19  2  0
 19 20  1  0
 20 21  1  0
 21 22  2  0
 17  6  1  0
 22 18  1  0
 13  8  1  0
  1 23  1  0
  1 24  1  0
  1 25  1  0
  3 26  1  0
  3 27  1  0
  3 28  1  0
  7 29  1  0
  7 30  1  0
  9 31  1  0
 10 32  1  0
 11 33  1  0
 12 34  1  0
 14 35  1  0
 15 36  1  0
 15 37  1  0
 16 38  1  0
 17 39  1  0
 17 40  1  0
 19 41  1  0
 20 42  1  0
 21 43  1  0
M  END
>  <Energy>  (737) 
681.82558270624202

>  <compound_id>  (737) 
63786

>  <target_id>  (737) 
1

>  <reference_id>  (737) 
146

>  <inspiration_ids>  (737) 
[146, 64]

>  <energy_score>  (737) 
567.3687319974778

>  <distance_score>  (737) 
15.70009301623161

>  <path>  (737) 
/opt/xchem-fragalysis-2/maxwin/BulkDock/SCRATCH/511024/C63786-P146/C63786-P146.minimised.mol

>  <scratch_subdir>  (737) 
/opt/xchem-fragalysis-2/maxwin/BulkDock/SCRATCH/511024/C63786-P146

>  <fragmenstein_runtime>  (737) 
40.440091133117676

>  <fragmenstein_outcome>  (737) 
too moved

>  <fragmenstein_mode>  (737) 
expansion

>  <fragmenstein_error>  (737) 


$$$$
C63786-P64
     RDKit          3D

 43 45  0  0  0  0  0  0  0  0999 V2000
    2.2826  -14.6708   20.6383 C   0  0  0  0  0  0  0  0  0  0  0  0
    3.0968  -14.1381   22.3354 C   0  0  0  0  0  0  0  0  0  0  0  0
    3.9048  -15.2103   23.5748 C   0  0  0  0  0  0  0  0  0  0  0  0
    4.4252  -13.2980   20.9297 C   0  0  0  0  0  0  0  0  0  0  0  0
    3.9010  -12.8378   19.9675 O   0  0  0  0  0  0  0  0  0  0  0  0
    6.0657  -13.2601   20.7204 N   0  0  0  0  0  0  0  0  0  0  0  0
    7.1053  -12.3702   20.9892 C   0  0  0  0  0  0  0  0  0  0  0  0
    8.7820  -12.1475   20.5959 C   0  0  0  0  0  0  0  0  0  0  0  0
    9.8617  -13.0043   20.5764 C   0  0  0  0  0  0  0  0  0  0  0  0
   11.1212  -12.4139   20.4678 C   0  0  0  0  0  0  0  0  0  0  0  0
   11.2627  -11.0161   20.4232 C   0  0  0  0  0  0  0  0  0  0  0  0
   10.1416  -10.1795   20.4180 C   0  0  0  0  0  0  0  0  0  0  0  0
    8.9034  -10.7711   20.4586 C   0  0  0  0  0  0  0  0  0  0  0  0
    7.4966  -10.2706   20.3970 C   0  0  0  0  0  0  0  0  0  0  0  0
    6.9846  -10.3054   18.9424 C   0  0  0  0  0  0  0  0  0  0  0  0
    6.2409   -9.1350   18.6280 O   0  0  0  0  0  0  0  0  0  0  0  0
    6.7101  -11.5879   21.4211 C   0  0  0  0  0  0  0  0  0  0  0  0
    1.3130  -14.5555   23.2590 C   0  0  0  0  0  0  0  0  0  0  0  0
   -0.0946  -14.3044   22.4935 C   0  0  0  0  0  0  0  0  0  0  0  0
   -1.1661  -14.8424   23.1025 N   0  0  0  0  0  0  0  0  0  0  0  0
   -0.8491  -14.4900   24.3249 C   0  0  0  0  0  0  0  0  0  0  0  0
    0.5127  -14.2803   24.3872 N   0  0  0  0  0  0  0  0  0  0  0  0
    2.5923  -15.5354   20.3471 H   0  0  0  0  0  0  0  0  0  0  0  0
    2.5283  -14.3571   19.6292 H   0  0  0  0  0  0  0  0  0  0  0  0
    1.3471  -15.2286   20.7573 H   0  0  0  0  0  0  0  0  0  0  0  0
    4.9918  -15.2991   23.7202 H   0  0  0  0  0  0  0  0  0  0  0  0
    3.7354  -16.2711   23.4534 H   0  0  0  0  0  0  0  0  0  0  0  0
    3.8026  -14.6394   24.5047 H   0  0  0  0  0  0  0  0  0  0  0  0
    7.2301  -12.6182   19.8507 H   0  0  0  0  0  0  0  0  0  0  0  0
    7.6212  -13.2221   21.6142 H   0  0  0  0  0  0  0  0  0  0  0  0
    9.7456  -14.0773   20.6765 H   0  0  0  0  0  0  0  0  0  0  0  0
   12.0097  -13.0422   20.4545 H   0  0  0  0  0  0  0  0  0  0  0  0
   12.2689  -10.6102   20.3945 H   0  0  0  0  0  0  0  0  0  0  0  0
   10.2406   -9.1071   20.3854 H   0  0  0  0  0  0  0  0  0  0  0  0
    7.3599   -9.3259   20.9262 H   0  0  0  0  0  0  0  0  0  0  0  0
    7.8211  -10.3657   18.2393 H   0  0  0  0  0  0  0  0  0  0  0  0
    6.3536  -11.1698   18.7257 H   0  0  0  0  0  0  0  0  0  0  0  0
    5.3443   -9.4660   18.3907 H   0  0  0  0  0  0  0  0  0  0  0  0
    5.7114  -11.0498   21.4914 H   0  0  0  0  0  0  0  0  0  0  0  0
    7.0323  -11.4669   22.5733 H   0  0  0  0  0  0  0  0  0  0  0  0
   -0.2425  -13.2478   22.4870 H   0  0  0  0  0  0  0  0  0  0  0  0
   -2.0472  -15.0874   22.6973 H   0  0  0  0  0  0  0  0  0  0  0  0
   -1.6137  -14.3406   25.1259 H   0  0  0  0  0  0  0  0  0  0  0  0
  1  2  1  0
  2  3  1  0
  2  4  1  0
  4  5  2  0
  4  6  1  0
  6  7  1  0
  7  8  1  0
  8  9  2  0
  9 10  1  0
 10 11  2  0
 11 12  1  0
 12 13  2  0
 13 14  1  0
 14 15  1  0
 15 16  1  0
 14 17  1  0
  2 18  1  0
 18 19  2  0
 19 20  1  0
 20 21  1  0
 21 22  2  0
 17  6  1  0
 22 18  1  0
 13  8  1  0
  1 23  1  0
  1 24  1  0
  1 25  1  0
  3 26  1  0
  3 27  1  0
  3 28  1  0
  7 29  1  0
  7 30  1  0
  9 31  1  0
 10 32  1  0
 11 33  1  0
 12 34  1  0
 14 35  1  0
 15 36  1  0
 15 37  1  0
 16 38  1  0
 17 39  1  0
 17 40  1  0
 19 41  1  0
 20 42  1  0
 21 43  1  0
M  END
>  <Energy>  (738) 
1200.8924606616424

>  <compound_id>  (738) 
63786

>  <target_id>  (738) 
1

>  <reference_id>  (738) 
64

>  <inspiration_ids>  (738) 
[146, 64]

>  <energy_score>  (738) 
1086.43560995289

>  <distance_score>  (738) 
13.994243568625999

>  <path>  (738) 
/opt/xchem-fragalysis-2/maxwin/BulkDock/SCRATCH/511024/C63786-P64/C63786-P64.minimised.mol

>  <scratch_subdir>  (738) 
/opt/xchem-fragalysis-2/maxwin/BulkDock/SCRATCH/511024/C63786-P64

>  <fragmenstein_runtime>  (738) 
16.656799793243408

>  <fragmenstein_outcome>  (738) 
too moved

>  <fragmenstein_mode>  (738) 
expansion

>  <fragmenstein_error>  (738) 


$$$$
C63787-P146
     RDKit          3D

 43 45  0  0  0  0  0  0  0  0999 V2000
   -4.4225  -18.4146   20.1541 C   0  0  0  0  0  0  0  0  0  0  0  0
   -3.3020  -17.6409   21.3731 C   0  0  0  0  0  0  0  0  0  0  0  0
   -4.4463  -17.1664   22.5212 C   0  0  0  0  0  0  0  0  0  0  0  0
   -1.8587  -16.3261   20.7684 C   0  0  0  0  0  0  0  0  0  0  0  0
   -2.2061  -15.2104   21.0350 O   0  0  0  0  0  0  0  0  0  0  0  0
   -0.5185  -16.2570   20.1603 N   0  0  0  0  0  0  0  0  0  0  0  0
    0.9183  -16.3082   20.8314 C   0  0  0  0  0  0  0  0  0  0  0  0
    2.4277  -15.5278   20.0494 C   0  0  0  0  0  0  0  0  0  0  0  0
    2.7968  -15.2321   18.6308 C   0  0  0  0  0  0  0  0  0  0  0  0
    4.3188  -15.0496   18.3035 C   0  0  0  0  0  0  0  0  0  0  0  0
    5.1730  -13.7618   18.7158 C   0  0  0  0  0  0  0  0  0  0  0  0
    6.6596  -13.6173   18.5419 C   0  0  0  0  0  0  0  0  0  0  0  0
    7.7954  -13.3691   18.4390 N   0  0  0  0  0  0  0  0  0  0  0  0
    4.8767  -15.9967   17.4768 C   0  0  0  0  0  0  0  0  0  0  0  0
    4.0424  -17.0488   17.0932 C   0  0  0  0  0  0  0  0  0  0  0  0
    2.6353  -17.1234   17.4174 C   0  0  0  0  0  0  0  0  0  0  0  0
    1.8824  -16.0981   18.0823 C   0  0  0  0  0  0  0  0  0  0  0  0
    0.0044  -16.0794   18.4213 C   0  0  0  0  0  0  0  0  0  0  0  0
   -3.0890  -19.2716   22.1382 C   0  0  0  0  0  0  0  0  0  0  0  0
   -4.1204  -20.1097   22.5858 C   0  0  0  0  0  0  0  0  0  0  0  0
   -3.5215  -21.2601   23.0063 N   0  0  0  0  0  0  0  0  0  0  0  0
   -2.1827  -21.1062   22.7931 C   0  0  0  0  0  0  0  0  0  0  0  0
   -1.8909  -19.9284   22.2751 N   0  0  0  0  0  0  0  0  0  0  0  0
   -4.3023  -18.0063   19.1416 H   0  0  0  0  0  0  0  0  0  0  0  0
   -4.2645  -19.4984   20.0549 H   0  0  0  0  0  0  0  0  0  0  0  0
   -5.4689  -18.3274   20.4738 H   0  0  0  0  0  0  0  0  0  0  0  0
   -5.4514  -17.1227   22.0989 H   0  0  0  0  0  0  0  0  0  0  0  0
   -4.2422  -16.2381   23.0404 H   0  0  0  0  0  0  0  0  0  0  0  0
   -4.5452  -17.8602   23.3611 H   0  0  0  0  0  0  0  0  0  0  0  0
    1.2577  -17.2971   21.0335 H   0  0  0  0  0  0  0  0  0  0  0  0
    0.7192  -15.7229   21.6680 H   0  0  0  0  0  0  0  0  0  0  0  0
    3.0580  -16.3495   20.0942 H   0  0  0  0  0  0  0  0  0  0  0  0
    2.9750  -14.8104   20.6198 H   0  0  0  0  0  0  0  0  0  0  0  0
    4.9238  -13.5013   19.7472 H   0  0  0  0  0  0  0  0  0  0  0  0
    4.7866  -12.9700   18.0794 H   0  0  0  0  0  0  0  0  0  0  0  0
    5.9097  -15.9664   17.1509 H   0  0  0  0  0  0  0  0  0  0  0  0
    4.4667  -17.8598   16.5007 H   0  0  0  0  0  0  0  0  0  0  0  0
    2.1396  -18.0424   17.0921 H   0  0  0  0  0  0  0  0  0  0  0  0
   -0.0448  -17.1102   18.0668 H   0  0  0  0  0  0  0  0  0  0  0  0
   -0.4587  -15.2111   17.9385 H   0  0  0  0  0  0  0  0  0  0  0  0
   -5.1956  -19.9923   22.6054 H   0  0  0  0  0  0  0  0  0  0  0  0
   -3.9794  -22.0886   23.3647 H   0  0  0  0  0  0  0  0  0  0  0  0
   -1.4682  -21.8859   23.0232 H   0  0  0  0  0  0  0  0  0  0  0  0
  1  2  1  0
  2  3  1  0
  2  4  1  0
  4  5  2  0
  4  6  1  0
  6  7  1  0
  7  8  1  0
  8  9  1  0
  9 10  2  0
 10 11  1  0
 11 12  1  0
 12 13  3  0
 10 14  1  0
 14 15  2  0
 15 16  1  0
 16 17  2  0
 17 18  1  0
  2 19  1  0
 19 20  2  0
 20 21  1  0
 21 22  1  0
 22 23  2  0
 18  6  1  0
 23 19  1  0
 17  9  1  0
  1 24  1  0
  1 25  1  0
  1 26  1  0
  3 27  1  0
  3 28  1  0
  3 29  1  0
  7 30  1  0
  7 31  1  0
  8 32  1  0
  8 33  1  0
 11 34  1  0
 11 35  1  0
 14 36  1  0
 15 37  1  0
 16 38  1  0
 18 39  1  0
 18 40  1  0
 20 41  1  0
 21 42  1  0
 22 43  1  0
M  END
>  <Energy>  (739) 
493.89114358487296

>  <compound_id>  (739) 
63787

>  <target_id>  (739) 
1

>  <reference_id>  (739) 
146

>  <inspiration_ids>  (739) 
[146, 64]

>  <energy_score>  (739) 
376.90309851361474

>  <distance_score>  (739) 
15.730475408507482

>  <path>  (739) 
/opt/xchem-fragalysis-2/maxwin/BulkDock/SCRATCH/511024/C63787-P146/C63787-P146.minimised.mol

>  <scratch_subdir>  (739) 
/opt/xchem-fragalysis-2/maxwin/BulkDock/SCRATCH/511024/C63787-P146

>  <fragmenstein_runtime>  (739) 
26.741978645324707

>  <fragmenstein_outcome>  (739) 
too moved

>  <fragmenstein_mode>  (739) 
expansion

>  <fragmenstein_error>  (739) 


$$$$
C63787-P64
     RDKit          3D

 43 45  0  0  0  0  0  0  0  0999 V2000
    4.3466  -17.9335   14.4467 C   0  0  0  0  0  0  0  0  0  0  0  0
    3.1419  -17.0265   14.1158 C   0  0  0  0  0  0  0  0  0  0  0  0
    2.6565  -16.2260   15.3183 C   0  0  0  0  0  0  0  0  0  0  0  0
    3.7507  -16.0378   12.9892 C   0  0  0  0  0  0  0  0  0  0  0  0
    3.7959  -16.4292   11.8247 O   0  0  0  0  0  0  0  0  0  0  0  0
    4.2802  -14.7470   13.3937 N   0  0  0  0  0  0  0  0  0  0  0  0
    6.1078  -15.0149   13.9035 C   0  0  0  0  0  0  0  0  0  0  0  0
    7.6997  -14.1532   13.5850 C   0  0  0  0  0  0  0  0  0  0  0  0
    7.5100  -12.7491   14.0568 C   0  0  0  0  0  0  0  0  0  0  0  0
    8.3627  -11.6634   14.3222 C   0  0  0  0  0  0  0  0  0  0  0  0
    9.8859  -11.6973   14.2777 C   0  0  0  0  0  0  0  0  0  0  0  0
   10.5980  -11.1812   15.4757 C   0  0  0  0  0  0  0  0  0  0  0  0
   11.2032  -10.8431   16.4089 N   0  0  0  0  0  0  0  0  0  0  0  0
    7.7166  -10.4422   14.5741 C   0  0  0  0  0  0  0  0  0  0  0  0
    6.3098  -10.3261   14.6099 C   0  0  0  0  0  0  0  0  0  0  0  0
    5.4853  -11.4343   14.3933 C   0  0  0  0  0  0  0  0  0  0  0  0
    6.1139  -12.6361   14.1316 C   0  0  0  0  0  0  0  0  0  0  0  0
    5.4956  -14.2595   13.8374 C   0  0  0  0  0  0  0  0  0  0  0  0
    1.8910  -17.9868   13.8449 C   0  0  0  0  0  0  0  0  0  0  0  0
    1.6042  -19.2072   14.4748 C   0  0  0  0  0  0  0  0  0  0  0  0
    0.2997  -19.5168   14.1843 N   0  0  0  0  0  0  0  0  0  0  0  0
   -0.1838  -18.5013   13.4194 C   0  0  0  0  0  0  0  0  0  0  0  0
    0.7283  -17.5690   13.2222 N   0  0  0  0  0  0  0  0  0  0  0  0
    4.0911  -18.7409   15.1329 H   0  0  0  0  0  0  0  0  0  0  0  0
    4.7339  -18.4121   13.5385 H   0  0  0  0  0  0  0  0  0  0  0  0
    5.1687  -17.3774   14.8956 H   0  0  0  0  0  0  0  0  0  0  0  0
    3.4857  -15.6727   15.7549 H   0  0  0  0  0  0  0  0  0  0  0  0
    2.2263  -16.8997   16.0544 H   0  0  0  0  0  0  0  0  0  0  0  0
    1.8951  -15.4977   15.0184 H   0  0  0  0  0  0  0  0  0  0  0  0
    6.3234  -15.9647   13.2799 H   0  0  0  0  0  0  0  0  0  0  0  0
    6.1921  -15.5517   14.9567 H   0  0  0  0  0  0  0  0  0  0  0  0
    7.8880  -14.2069   12.5067 H   0  0  0  0  0  0  0  0  0  0  0  0
    8.4589  -14.6964   14.1555 H   0  0  0  0  0  0  0  0  0  0  0  0
   10.2108  -11.1562   13.3825 H   0  0  0  0  0  0  0  0  0  0  0  0
   10.2009  -12.7375   14.1277 H   0  0  0  0  0  0  0  0  0  0  0  0
    8.3087   -9.5463   14.7321 H   0  0  0  0  0  0  0  0  0  0  0  0
    5.8608   -9.3553   14.8071 H   0  0  0  0  0  0  0  0  0  0  0  0
    4.4061  -11.3522   14.4131 H   0  0  0  0  0  0  0  0  0  0  0  0
    4.8920  -13.9174   14.7828 H   0  0  0  0  0  0  0  0  0  0  0  0
    5.3981  -13.6821   12.8021 H   0  0  0  0  0  0  0  0  0  0  0  0
    2.1810  -19.8352   15.1376 H   0  0  0  0  0  0  0  0  0  0  0  0
   -0.2198  -20.3230   14.5025 H   0  0  0  0  0  0  0  0  0  0  0  0
   -1.2017  -18.4716   13.0541 H   0  0  0  0  0  0  0  0  0  0  0  0
  1  2  1  0
  2  3  1  0
  2  4  1  0
  4  5  2  0
  4  6  1  0
  6  7  1  0
  7  8  1  0
  8  9  1  0
  9 10  2  0
 10 11  1  0
 11 12  1  0
 12 13  3  0
 10 14  1  0
 14 15  2  0
 15 16  1  0
 16 17  2  0
 17 18  1  0
  2 19  1  0
 19 20  2  0
 20 21  1  0
 21 22  1  0
 22 23  2  0
 18  6  1  0
 23 19  1  0
 17  9  1  0
  1 24  1  0
  1 25  1  0
  1 26  1  0
  3 27  1  0
  3 28  1  0
  3 29  1  0
  7 30  1  0
  7 31  1  0
  8 32  1  0
  8 33  1  0
 11 34  1  0
 11 35  1  0
 14 36  1  0
 15 37  1  0
 16 38  1  0
 18 39  1  0
 18 40  1  0
 20 41  1  0
 21 42  1  0
 22 43  1  0
M  END
>  <Energy>  (740) 
699.08409670317053

>  <compound_id>  (740) 
63787

>  <target_id>  (740) 
1

>  <reference_id>  (740) 
64

>  <inspiration_ids>  (740) 
[146, 64]

>  <energy_score>  (740) 
582.0960516319269

>  <distance_score>  (740) 
15.656289213466193

>  <path>  (740) 
/opt/xchem-fragalysis-2/maxwin/BulkDock/SCRATCH/511024/C63787-P64/C63787-P64.minimised.mol

>  <scratch_subdir>  (740) 
/opt/xchem-fragalysis-2/maxwin/BulkDock/SCRATCH/511024/C63787-P64

>  <fragmenstein_runtime>  (740) 
23.178318738937378

>  <fragmenstein_outcome>  (740) 
too moved

>  <fragmenstein_mode>  (740) 
expansion

>  <fragmenstein_error>  (740) 


$$$$
C63788-P146
     RDKit          3D

 39 41  0  0  0  0  0  0  0  0999 V2000
   -4.4267  -11.5482   19.3215 C   0  0  0  0  0  0  0  0  0  0  0  0
   -5.3434  -10.3887   19.7154 C   0  0  0  0  0  0  0  0  0  0  0  0
   -4.9853   -9.7711   21.0774 C   0  0  0  0  0  0  0  0  0  0  0  0
   -5.1218   -9.1910   18.6613 C   0  0  0  0  0  0  0  0  0  0  0  0
   -6.0724   -8.6848   18.0554 O   0  0  0  0  0  0  0  0  0  0  0  0
   -3.7974   -8.6664   18.3912 N   0  0  0  0  0  0  0  0  0  0  0  0
   -2.9917   -9.2515   17.3206 C   0  0  0  0  0  0  0  0  0  0  0  0
   -2.0453   -8.2582   16.5854 C   0  0  0  0  0  0  0  0  0  0  0  0
   -1.1092   -7.5859   17.5568 C   0  0  0  0  0  0  0  0  0  0  0  0
    0.2288   -7.2653   17.2220 C   0  0  0  0  0  0  0  0  0  0  0  0
    1.0458   -6.6290   18.1501 C   0  0  0  0  0  0  0  0  0  0  0  0
    2.3124   -6.3318   17.8341 F   0  0  0  0  0  0  0  0  0  0  0  0
    0.5449   -6.2896   19.3995 C   0  0  0  0  0  0  0  0  0  0  0  0
   -0.7940   -6.5912   19.7246 C   0  0  0  0  0  0  0  0  0  0  0  0
   -1.6459   -7.2567   18.8165 C   0  0  0  0  0  0  0  0  0  0  0  0
   -3.1531   -7.5410   19.1297 C   0  0  0  0  0  0  0  0  0  0  0  0
   -6.7695  -11.0891   19.8826 C   0  0  0  0  0  0  0  0  0  0  0  0
   -7.7349  -10.9068   20.8673 C   0  0  0  0  0  0  0  0  0  0  0  0
   -8.5744  -11.9929   20.8133 N   0  0  0  0  0  0  0  0  0  0  0  0
   -8.1447  -12.7967   19.8032 C   0  0  0  0  0  0  0  0  0  0  0  0
   -7.0758  -12.2940   19.2268 N   0  0  0  0  0  0  0  0  0  0  0  0
   -4.2943  -12.2534   20.1276 H   0  0  0  0  0  0  0  0  0  0  0  0
   -4.8208  -12.0771   18.4495 H   0  0  0  0  0  0  0  0  0  0  0  0
   -3.4489  -11.2054   19.0066 H   0  0  0  0  0  0  0  0  0  0  0  0
   -5.4975   -8.8106   21.2161 H   0  0  0  0  0  0  0  0  0  0  0  0
   -5.2724  -10.3985   21.9220 H   0  0  0  0  0  0  0  0  0  0  0  0
   -3.9246   -9.5837   21.1646 H   0  0  0  0  0  0  0  0  0  0  0  0
   -3.6585   -9.7450   16.6063 H   0  0  0  0  0  0  0  0  0  0  0  0
   -2.3637  -10.0153   17.7891 H   0  0  0  0  0  0  0  0  0  0  0  0
   -1.4773   -8.8037   15.8243 H   0  0  0  0  0  0  0  0  0  0  0  0
   -2.6376   -7.4882   16.0769 H   0  0  0  0  0  0  0  0  0  0  0  0
    0.6331   -7.5131   16.2457 H   0  0  0  0  0  0  0  0  0  0  0  0
    1.1870   -5.7871   20.1154 H   0  0  0  0  0  0  0  0  0  0  0  0
   -1.1722   -6.2992   20.7021 H   0  0  0  0  0  0  0  0  0  0  0  0
   -3.7127   -6.6413   18.8444 H   0  0  0  0  0  0  0  0  0  0  0  0
   -3.3144   -7.6755   20.1999 H   0  0  0  0  0  0  0  0  0  0  0  0
   -7.8420  -10.1569   21.6374 H   0  0  0  0  0  0  0  0  0  0  0  0
   -9.3639  -12.1672   21.4181 H   0  0  0  0  0  0  0  0  0  0  0  0
   -8.6355  -13.7218   19.5343 H   0  0  0  0  0  0  0  0  0  0  0  0
  1  2  1  0
  2  3  1  0
  2  4  1  0
  4  5  2  0
  4  6  1  0
  6  7  1  0
  7  8  1  0
  8  9  1  0
  9 10  2  0
 10 11  1  0
 11 12  1  0
 11 13  2  0
 13 14  1  0
 14 15  2  0
 15 16  1  0
  2 17  1  0
 17 18  2  0
 18 19  1  0
 19 20  1  0
 20 21  2  0
 16  6  1  0
 21 17  1  0
 15  9  1  0
  1 22  1  0
  1 23  1  0
  1 24  1  0
  3 25  1  0
  3 26  1  0
  3 27  1  0
  7 28  1  0
  7 29  1  0
  8 30  1  0
  8 31  1  0
 10 32  1  0
 13 33  1  0
 14 34  1  0
 16 35  1  0
 16 36  1  0
 18 37  1  0
 19 38  1  0
 20 39  1  0
M  END
>  <Energy>  (741) 
94.649264793276103

>  <compound_id>  (741) 
63788

>  <target_id>  (741) 
1

>  <reference_id>  (741) 
146

>  <inspiration_ids>  (741) 
[146, 64]

>  <energy_score>  (741) 
-7.31776260092272

>  <distance_score>  (741) 
16.374209974627213

>  <path>  (741) 
/opt/xchem-fragalysis-2/maxwin/BulkDock/SCRATCH/511024/C63788-P146/C63788-P146.minimised.mol

>  <scratch_subdir>  (741) 
/opt/xchem-fragalysis-2/maxwin/BulkDock/SCRATCH/511024/C63788-P146

>  <fragmenstein_runtime>  (741) 
28.073545217514038

>  <fragmenstein_outcome>  (741) 
too moved

>  <fragmenstein_mode>  (741) 
expansion

>  <fragmenstein_error>  (741) 


$$$$
C63788-P64
     RDKit          3D

 39 41  0  0  0  0  0  0  0  0999 V2000
    1.4612  -19.8347   20.9451 C   0  0  0  0  0  0  0  0  0  0  0  0
    0.4726  -18.4757   20.9098 C   0  0  0  0  0  0  0  0  0  0  0  0
   -0.1162  -18.6297   19.3829 C   0  0  0  0  0  0  0  0  0  0  0  0
    0.6798  -16.4778   20.9706 C   0  0  0  0  0  0  0  0  0  0  0  0
   -0.3421  -16.0026   21.3774 O   0  0  0  0  0  0  0  0  0  0  0  0
    1.8832  -15.0545   20.4041 N   0  0  0  0  0  0  0  0  0  0  0  0
    3.0629  -14.4649   22.0067 C   0  0  0  0  0  0  0  0  0  0  0  0
    3.5124  -12.5351   22.3815 C   0  0  0  0  0  0  0  0  0  0  0  0
    4.7058  -12.1980   21.0776 C   0  0  0  0  0  0  0  0  0  0  0  0
    5.9448  -11.4411   20.9366 C   0  0  0  0  0  0  0  0  0  0  0  0
    6.7413  -11.6075   19.8019 C   0  0  0  0  0  0  0  0  0  0  0  0
    7.8726  -10.9005   19.6770 F   0  0  0  0  0  0  0  0  0  0  0  0
    6.3788  -12.5313   18.8257 C   0  0  0  0  0  0  0  0  0  0  0  0
    5.2188  -13.3146   19.0007 C   0  0  0  0  0  0  0  0  0  0  0  0
    4.3998  -13.1273   20.1612 C   0  0  0  0  0  0  0  0  0  0  0  0
    2.9806  -14.1827   21.0459 C   0  0  0  0  0  0  0  0  0  0  0  0
   -0.9308  -19.2034   21.6270 C   0  0  0  0  0  0  0  0  0  0  0  0
   -1.0058  -20.1407   22.6672 C   0  0  0  0  0  0  0  0  0  0  0  0
   -2.2755  -20.6621   22.6618 N   0  0  0  0  0  0  0  0  0  0  0  0
   -2.9473  -20.0842   21.6292 C   0  0  0  0  0  0  0  0  0  0  0  0
   -2.1908  -19.2070   21.0049 N   0  0  0  0  0  0  0  0  0  0  0  0
    1.0624  -20.6702   21.5222 H   0  0  0  0  0  0  0  0  0  0  0  0
    1.6005  -20.2352   19.9308 H   0  0  0  0  0  0  0  0  0  0  0  0
    2.4712  -19.6592   21.3234 H   0  0  0  0  0  0  0  0  0  0  0  0
    0.6114  -18.3722   18.6104 H   0  0  0  0  0  0  0  0  0  0  0  0
   -0.4213  -19.6639   19.1710 H   0  0  0  0  0  0  0  0  0  0  0  0
   -1.0103  -18.0110   19.2677 H   0  0  0  0  0  0  0  0  0  0  0  0
    2.4904  -14.4290   23.0645 H   0  0  0  0  0  0  0  0  0  0  0  0
    3.5868  -15.2247   22.7477 H   0  0  0  0  0  0  0  0  0  0  0  0
    3.8094  -12.4832   23.4304 H   0  0  0  0  0  0  0  0  0  0  0  0
    2.6331  -11.9937   22.6653 H   0  0  0  0  0  0  0  0  0  0  0  0
    6.2852  -10.7608   21.7123 H   0  0  0  0  0  0  0  0  0  0  0  0
    7.0052  -12.6696   17.9513 H   0  0  0  0  0  0  0  0  0  0  0  0
    4.9946  -14.1012   18.2855 H   0  0  0  0  0  0  0  0  0  0  0  0
    2.7947  -13.1592   20.8703 H   0  0  0  0  0  0  0  0  0  0  0  0
    2.8185  -14.2456   19.8546 H   0  0  0  0  0  0  0  0  0  0  0  0
   -0.2495  -20.5095   23.3466 H   0  0  0  0  0  0  0  0  0  0  0  0
   -2.6255  -21.3971   23.2606 H   0  0  0  0  0  0  0  0  0  0  0  0
   -3.9674  -20.3367   21.3727 H   0  0  0  0  0  0  0  0  0  0  0  0
  1  2  1  0
  2  3  1  0
  2  4  1  0
  4  5  2  0
  4  6  1  0
  6  7  1  0
  7  8  1  0
  8  9  1  0
  9 10  2  0
 10 11  1  0
 11 12  1  0
 11 13  2  0
 13 14  1  0
 14 15  2  0
 15 16  1  0
  2 17  1  0
 17 18  2  0
 18 19  1  0
 19 20  1  0
 20 21  2  0
 16  6  1  0
 21 17  1  0
 15  9  1  0
  1 22  1  0
  1 23  1  0
  1 24  1  0
  3 25  1  0
  3 26  1  0
  3 27  1  0
  7 28  1  0
  7 29  1  0
  8 30  1  0
  8 31  1  0
 10 32  1  0
 13 33  1  0
 14 34  1  0
 16 35  1  0
 16 36  1  0
 18 37  1  0
 19 38  1  0
 20 39  1  0
M  END
>  <Energy>  (742) 
1142.5552311366519

>  <compound_id>  (742) 
63788

>  <target_id>  (742) 
1

>  <reference_id>  (742) 
64

>  <inspiration_ids>  (742) 
[146, 64]

>  <energy_score>  (742) 
1040.588203742468

>  <distance_score>  (742) 
14.433702481685886

>  <path>  (742) 
/opt/xchem-fragalysis-2/maxwin/BulkDock/SCRATCH/511024/C63788-P64/C63788-P64.minimised.mol

>  <scratch_subdir>  (742) 
/opt/xchem-fragalysis-2/maxwin/BulkDock/SCRATCH/511024/C63788-P64

>  <fragmenstein_runtime>  (742) 
26.1760470867157

>  <fragmenstein_outcome>  (742) 
too moved

>  <fragmenstein_mode>  (742) 
expansion

>  <fragmenstein_error>  (742) 


$$$$
C66924-P146
     RDKit          3D

 38 40  0  0  0  0  0  0  0  0999 V2000
    8.4411   -1.9293   14.7772 N   0  0  0  0  0  0  0  0  0  0  0  0
    7.4913   -2.9393   15.0011 C   0  0  0  0  0  0  0  0  0  0  0  0
    6.0431   -2.7167   14.6950 C   0  0  0  0  0  0  0  0  0  0  0  0
    4.9000   -3.6389   15.1145 C   0  0  0  0  0  0  0  0  0  0  0  0
    5.0755   -4.9344   15.8340 C   0  0  0  0  0  0  0  0  0  0  0  0
    6.4866   -5.4827   16.0822 C   0  0  0  0  0  0  0  0  0  0  0  0
    7.9244   -4.2861   15.7257 C   0  0  0  0  0  0  0  0  0  0  0  0
    5.8492   -6.9348   15.7327 C   0  0  0  0  0  0  0  0  0  0  0  0
    4.0750   -6.6686   15.0006 C   0  0  0  0  0  0  0  0  0  0  0  0
    3.6749   -7.6330   14.2284 N   0  0  0  0  0  0  0  0  0  0  0  0
    2.2916   -8.0308   13.5397 C   0  0  0  0  0  0  0  0  0  0  0  0
    1.2176   -7.5989   13.6375 O   0  0  0  0  0  0  0  0  0  0  0  0
    2.5688   -9.1634   12.4693 C   0  0  0  0  0  0  0  0  0  0  0  0
    2.6837  -10.6852   12.5592 C   0  0  0  0  0  0  0  0  0  0  0  0
    1.4367  -11.5873   12.4774 C   0  0  0  0  0  0  0  0  0  0  0  0
    1.4712  -12.9105   12.4234 N   0  0  0  0  0  0  0  0  0  0  0  0
    0.1757  -13.3371   12.2345 C   0  0  0  0  0  0  0  0  0  0  0  0
   -0.6639  -12.2588   12.1533 C   0  0  0  0  0  0  0  0  0  0  0  0
    0.1243  -11.1684   12.4231 N   0  0  0  0  0  0  0  0  0  0  0  0
    3.8223   -6.2988   15.6755 C   0  0  0  0  0  0  0  0  0  0  0  0
    8.2555   -1.4585   13.8804 H   0  0  0  0  0  0  0  0  0  0  0  0
    9.3886   -2.2897   14.6961 H   0  0  0  0  0  0  0  0  0  0  0  0
    5.7639   -1.7915   14.1852 H   0  0  0  0  0  0  0  0  0  0  0  0
    3.8966   -3.3467   14.8001 H   0  0  0  0  0  0  0  0  0  0  0  0
    8.8232   -4.4688   15.1424 H   0  0  0  0  0  0  0  0  0  0  0  0
    5.6770   -7.4904   16.6691 H   0  0  0  0  0  0  0  0  0  0  0  0
    6.3259   -7.5839   14.9845 H   0  0  0  0  0  0  0  0  0  0  0  0
    4.8280   -6.8211   14.1123 H   0  0  0  0  0  0  0  0  0  0  0  0
    3.8078   -5.7029   14.0922 H   0  0  0  0  0  0  0  0  0  0  0  0
    1.8507   -8.9436   11.6641 H   0  0  0  0  0  0  0  0  0  0  0  0
    3.5295   -8.8388   12.0363 H   0  0  0  0  0  0  0  0  0  0  0  0
    3.3470  -10.9701   13.3798 H   0  0  0  0  0  0  0  0  0  0  0  0
    3.2543  -10.9870   11.6659 H   0  0  0  0  0  0  0  0  0  0  0  0
   -0.0591  -14.3875   12.1335 H   0  0  0  0  0  0  0  0  0  0  0  0
   -1.7157  -12.1661   11.9360 H   0  0  0  0  0  0  0  0  0  0  0  0
   -0.1821  -10.2059   12.4525 H   0  0  0  0  0  0  0  0  0  0  0  0
    2.7641   -5.6878   15.7594 H   0  0  0  0  0  0  0  0  0  0  0  0
    3.7082   -6.8163   16.7696 H   0  0  0  0  0  0  0  0  0  0  0  0
  1  2  1  0
  2  3  2  0
  3  4  1  0
  4  5  2  0
  5  6  1  0
  6  7  2  0
  6  8  1  0
  8  9  1  0
  9 10  1  0
 10 11  1  0
 11 12  2  0
 11 13  1  0
 13 14  1  0
 14 15  1  0
 15 16  2  0
 16 17  1  0
 17 18  2  0
 18 19  1  0
 10 20  1  0
  7  2  1  0
 19 15  1  0
 20  5  1  0
  1 21  1  0
  1 22  1  0
  3 23  1  0
  4 24  1  0
  7 25  1  0
  8 26  1  0
  8 27  1  0
  9 28  1  0
  9 29  1  0
 13 30  1  0
 13 31  1  0
 14 32  1  0
 14 33  1  0
 17 34  1  0
 18 35  1  0
 19 36  1  0
 20 37  1  0
 20 38  1  0
M  END
>  <Energy>  (743) 
1009.1160501321083

>  <compound_id>  (743) 
66924

>  <target_id>  (743) 
1

>  <reference_id>  (743) 
146

>  <inspiration_ids>  (743) 
[146, 64]

>  <energy_score>  (743) 
981.1319212918302

>  <distance_score>  (743) 
15.314180208843121

>  <path>  (743) 
/opt/xchem-fragalysis-2/maxwin/BulkDock/SCRATCH/511024/C66924-P146/C66924-P146.minimised.mol

>  <scratch_subdir>  (743) 
/opt/xchem-fragalysis-2/maxwin/BulkDock/SCRATCH/511024/C66924-P146

>  <fragmenstein_runtime>  (743) 
15.903109788894653

>  <fragmenstein_outcome>  (743) 
too moved

>  <fragmenstein_mode>  (743) 
expansion

>  <fragmenstein_error>  (743) 


$$$$
C66924-P64
     RDKit          3D

 38 40  0  0  0  0  0  0  0  0999 V2000
   12.9646   -6.3493   16.4719 N   0  0  0  0  0  0  0  0  0  0  0  0
   12.1166   -7.3891   16.0133 C   0  0  0  0  0  0  0  0  0  0  0  0
   10.9278   -6.7800   15.6406 C   0  0  0  0  0  0  0  0  0  0  0  0
    9.6191   -7.9764   15.3134 C   0  0  0  0  0  0  0  0  0  0  0  0
    9.5357   -9.5730   15.9029 C   0  0  0  0  0  0  0  0  0  0  0  0
   10.7153  -10.2187   15.9635 C   0  0  0  0  0  0  0  0  0  0  0  0
   11.8910   -9.2387   15.9225 C   0  0  0  0  0  0  0  0  0  0  0  0
   10.2347  -11.3146   16.8895 C   0  0  0  0  0  0  0  0  0  0  0  0
    8.5111  -10.4351   17.4209 C   0  0  0  0  0  0  0  0  0  0  0  0
    7.1906  -10.6541   18.5293 N   0  0  0  0  0  0  0  0  0  0  0  0
    7.0735  -11.4281   20.1279 C   0  0  0  0  0  0  0  0  0  0  0  0
    7.9090  -11.8550   20.8539 O   0  0  0  0  0  0  0  0  0  0  0  0
    5.3115  -11.8283   20.8091 C   0  0  0  0  0  0  0  0  0  0  0  0
    3.8041  -12.4722   21.9446 C   0  0  0  0  0  0  0  0  0  0  0  0
    3.2453  -13.7030   23.3545 C   0  0  0  0  0  0  0  0  0  0  0  0
    3.3214  -13.4589   24.6161 N   0  0  0  0  0  0  0  0  0  0  0  0
    4.1954  -14.3484   25.4107 C   0  0  0  0  0  0  0  0  0  0  0  0
    4.5845  -15.3299   24.5968 C   0  0  0  0  0  0  0  0  0  0  0  0
    3.7298  -15.0845   23.5120 N   0  0  0  0  0  0  0  0  0  0  0  0
    8.7682  -10.1609   17.7336 C   0  0  0  0  0  0  0  0  0  0  0  0
   13.8232   -6.4766   15.9403 H   0  0  0  0  0  0  0  0  0  0  0  0
   12.6648   -5.3874   16.3794 H   0  0  0  0  0  0  0  0  0  0  0  0
   10.9828   -5.6926   15.5713 H   0  0  0  0  0  0  0  0  0  0  0  0
    8.7276   -7.6696   14.7546 H   0  0  0  0  0  0  0  0  0  0  0  0
   12.5914   -9.8178   15.3195 H   0  0  0  0  0  0  0  0  0  0  0  0
    9.9954  -12.2358   16.3417 H   0  0  0  0  0  0  0  0  0  0  0  0
   10.9075  -11.5119   17.7333 H   0  0  0  0  0  0  0  0  0  0  0  0
    7.8009  -10.1979   16.3123 H   0  0  0  0  0  0  0  0  0  0  0  0
    8.2245  -11.5597   16.8411 H   0  0  0  0  0  0  0  0  0  0  0  0
    5.6508  -11.1957   21.6459 H   0  0  0  0  0  0  0  0  0  0  0  0
    5.5501  -12.8718   20.5652 H   0  0  0  0  0  0  0  0  0  0  0  0
    3.3531  -13.0576   21.1653 H   0  0  0  0  0  0  0  0  0  0  0  0
    3.5490  -11.6040   22.5454 H   0  0  0  0  0  0  0  0  0  0  0  0
    4.4225  -14.2185   26.4613 H   0  0  0  0  0  0  0  0  0  0  0  0
    5.1864  -16.1942   24.7981 H   0  0  0  0  0  0  0  0  0  0  0  0
    3.4232  -15.8189   22.9361 H   0  0  0  0  0  0  0  0  0  0  0  0
    8.6847   -9.1870   18.5886 H   0  0  0  0  0  0  0  0  0  0  0  0
    9.6571  -10.5829   18.6866 H   0  0  0  0  0  0  0  0  0  0  0  0
  1  2  1  0
  2  3  2  0
  3  4  1  0
  4  5  2  0
  5  6  1  0
  6  7  2  0
  6  8  1  0
  8  9  1  0
  9 10  1  0
 10 11  1  0
 11 12  2  0
 11 13  1  0
 13 14  1  0
 14 15  1  0
 15 16  2  0
 16 17  1  0
 17 18  2  0
 18 19  1  0
 10 20  1  0
  7  2  1  0
 19 15  1  0
 20  5  1  0
  1 21  1  0
  1 22  1  0
  3 23  1  0
  4 24  1  0
  7 25  1  0
  8 26  1  0
  8 27  1  0
  9 28  1  0
  9 29  1  0
 13 30  1  0
 13 31  1  0
 14 32  1  0
 14 33  1  0
 17 34  1  0
 18 35  1  0
 19 36  1  0
 20 37  1  0
 20 38  1  0
M  END
>  <Energy>  (744) 
1546.1703110969013

>  <compound_id>  (744) 
66924

>  <target_id>  (744) 
1

>  <reference_id>  (744) 
64

>  <inspiration_ids>  (744) 
[146, 64]

>  <energy_score>  (744) 
1518.186182256637

>  <distance_score>  (744) 
12.882570811017917

>  <path>  (744) 
/opt/xchem-fragalysis-2/maxwin/BulkDock/SCRATCH/511024/C66924-P64/C66924-P64.minimised.mol

>  <scratch_subdir>  (744) 
/opt/xchem-fragalysis-2/maxwin/BulkDock/SCRATCH/511024/C66924-P64

>  <fragmenstein_runtime>  (744) 
12.624197721481323

>  <fragmenstein_outcome>  (744) 
too moved

>  <fragmenstein_mode>  (744) 
expansion

>  <fragmenstein_error>  (744) 


$$$$
C63790-P146
     RDKit          3D

 40 42  0  0  0  0  0  0  0  0999 V2000
    3.6726  -19.3780   18.7065 C   0  0  0  0  0  0  0  0  0  0  0  0
    4.9021  -19.0558   18.4378 N   0  0  0  0  0  0  0  0  0  0  0  0
    3.0615  -19.0797   19.1832 C   0  0  0  0  0  0  0  0  0  0  0  0
    2.1373  -20.2364   20.1560 C   0  0  0  0  0  0  0  0  0  0  0  0
    1.9333  -20.2650   21.5265 C   0  0  0  0  0  0  0  0  0  0  0  0
    0.8831  -21.1295   21.7329 N   0  0  0  0  0  0  0  0  0  0  0  0
    0.4810  -21.5866   20.5108 C   0  0  0  0  0  0  0  0  0  0  0  0
    1.2043  -21.0631   19.5417 N   0  0  0  0  0  0  0  0  0  0  0  0
    6.1855  -18.6315   19.2985 C   0  0  0  0  0  0  0  0  0  0  0  0
    6.3261  -18.3954   20.4215 O   0  0  0  0  0  0  0  0  0  0  0  0
    7.4831  -18.4173   18.2842 C   0  0  0  0  0  0  0  0  0  0  0  0
    7.5289  -18.9985   17.2858 O   0  0  0  0  0  0  0  0  0  0  0  0
    8.5606  -17.4062   19.0392 N   0  0  0  0  0  0  0  0  0  0  0  0
    9.6800  -17.0032   18.4600 C   0  0  0  0  0  0  0  0  0  0  0  0
    9.6790  -16.3767   16.6610 C   0  0  0  0  0  0  0  0  0  0  0  0
   10.5633  -15.1842   16.8356 C   0  0  0  0  0  0  0  0  0  0  0  0
   10.9456  -14.1082   16.0486 C   0  0  0  0  0  0  0  0  0  0  0  0
   11.8550  -13.1841   16.5873 C   0  0  0  0  0  0  0  0  0  0  0  0
   12.3202  -11.8118   15.6610 Cl  0  0  0  0  0  0  0  0  0  0  0  0
   12.4047  -13.3726   17.8682 C   0  0  0  0  0  0  0  0  0  0  0  0
   12.0231  -14.4784   18.6455 C   0  0  0  0  0  0  0  0  0  0  0  0
   11.0623  -15.3291   18.1163 C   0  0  0  0  0  0  0  0  0  0  0  0
   10.4345  -16.8460   18.7344 C   0  0  0  0  0  0  0  0  0  0  0  0
    4.2610  -20.3681   19.2219 H   0  0  0  0  0  0  0  0  0  0  0  0
    3.5465  -19.0493   17.4921 H   0  0  0  0  0  0  0  0  0  0  0  0
    3.3726  -20.4116   18.0135 H   0  0  0  0  0  0  0  0  0  0  0  0
    3.2193  -18.3057   20.0935 H   0  0  0  0  0  0  0  0  0  0  0  0
    2.2085  -18.3674   18.6357 H   0  0  0  0  0  0  0  0  0  0  0  0
    2.3799  -19.7134   22.3407 H   0  0  0  0  0  0  0  0  0  0  0  0
    0.4633  -21.3628   22.6223 H   0  0  0  0  0  0  0  0  0  0  0  0
   -0.3387  -22.2820   20.3871 H   0  0  0  0  0  0  0  0  0  0  0  0
    8.9074  -16.0196   18.4913 H   0  0  0  0  0  0  0  0  0  0  0  0
    9.5702  -18.0586   17.8197 H   0  0  0  0  0  0  0  0  0  0  0  0
    8.6466  -16.2138   16.3515 H   0  0  0  0  0  0  0  0  0  0  0  0
   10.1704  -17.1422   16.0469 H   0  0  0  0  0  0  0  0  0  0  0  0
   10.5447  -13.9834   15.0479 H   0  0  0  0  0  0  0  0  0  0  0  0
   13.1399  -12.6693   18.2531 H   0  0  0  0  0  0  0  0  0  0  0  0
   12.4604  -14.6556   19.6231 H   0  0  0  0  0  0  0  0  0  0  0  0
   10.7556  -16.6412   19.8866 H   0  0  0  0  0  0  0  0  0  0  0  0
   11.3006  -17.7170   18.5549 H   0  0  0  0  0  0  0  0  0  0  0  0
  1  2  1  0
  2  3  1  0
  3  4  1  0
  4  5  2  0
  5  6  1  0
  6  7  1  0
  7  8  2  0
  2  9  1  0
  9 10  2  0
  9 11  1  0
 11 12  2  0
 11 13  1  0
 13 14  1  0
 14 15  1  0
 15 16  1  0
 16 17  2  0
 17 18  1  0
 18 19  1  0
 18 20  2  0
 20 21  1  0
 21 22  2  0
 22 23  1  0
  8  4  1  0
 23 13  1  0
 22 16  1  0
  1 24  1  0
  1 25  1  0
  1 26  1  0
  3 27  1  0
  3 28  1  0
  5 29  1  0
  6 30  1  0
  7 31  1  0
 14 32  1  0
 14 33  1  0
 15 34  1  0
 15 35  1  0
 17 36  1  0
 20 37  1  0
 21 38  1  0
 23 39  1  0
 23 40  1  0
M  END
>  <Energy>  (745) 
1643.1913124189073

>  <compound_id>  (745) 
63790

>  <target_id>  (745) 
1

>  <reference_id>  (745) 
146

>  <inspiration_ids>  (745) 
[146, 64]

>  <energy_score>  (745) 
1533.2986144973659

>  <distance_score>  (745) 
14.827735712988009

>  <path>  (745) 
/opt/xchem-fragalysis-2/maxwin/BulkDock/SCRATCH/511024/C63790-P146/C63790-P146.minimised.mol

>  <scratch_subdir>  (745) 
/opt/xchem-fragalysis-2/maxwin/BulkDock/SCRATCH/511024/C63790-P146

>  <fragmenstein_runtime>  (745) 
34.69360136985779

>  <fragmenstein_outcome>  (745) 
too moved

>  <fragmenstein_mode>  (745) 
expansion

>  <fragmenstein_error>  (745) 


$$$$
C63790-P64
     RDKit          3D

 40 42  0  0  0  0  0  0  0  0999 V2000
    3.9749  -16.3768   28.4473 C   0  0  0  0  0  0  0  0  0  0  0  0
    4.5897  -15.2889   28.0980 N   0  0  0  0  0  0  0  0  0  0  0  0
    3.7992  -17.1102   28.1087 C   0  0  0  0  0  0  0  0  0  0  0  0
    2.0811  -17.6074   28.0786 C   0  0  0  0  0  0  0  0  0  0  0  0
    0.9331  -17.0509   28.6217 C   0  0  0  0  0  0  0  0  0  0  0  0
   -0.0927  -17.9092   28.2961 N   0  0  0  0  0  0  0  0  0  0  0  0
    0.4499  -18.9589   27.6120 C   0  0  0  0  0  0  0  0  0  0  0  0
    1.7525  -18.8180   27.4760 N   0  0  0  0  0  0  0  0  0  0  0  0
    6.0175  -14.9493   27.4178 C   0  0  0  0  0  0  0  0  0  0  0  0
    6.8398  -15.6220   26.9584 O   0  0  0  0  0  0  0  0  0  0  0  0
    6.3051  -13.3482   27.5232 C   0  0  0  0  0  0  0  0  0  0  0  0
    5.6992  -12.7639   28.3157 O   0  0  0  0  0  0  0  0  0  0  0  0
    7.3663  -12.8661   26.3642 N   0  0  0  0  0  0  0  0  0  0  0  0
    7.7745  -11.7151   25.8904 C   0  0  0  0  0  0  0  0  0  0  0  0
    9.2990  -12.4818   25.1072 C   0  0  0  0  0  0  0  0  0  0  0  0
   10.0898  -11.2604   24.8278 C   0  0  0  0  0  0  0  0  0  0  0  0
   11.2412  -10.9624   24.1198 C   0  0  0  0  0  0  0  0  0  0  0  0
   11.6609   -9.6262   24.0791 C   0  0  0  0  0  0  0  0  0  0  0  0
   13.0606   -9.1985   23.1748 Cl  0  0  0  0  0  0  0  0  0  0  0  0
   10.9468   -8.6250   24.7620 C   0  0  0  0  0  0  0  0  0  0  0  0
    9.7795   -8.9451   25.4708 C   0  0  0  0  0  0  0  0  0  0  0  0
    9.3844  -10.2772   25.4752 C   0  0  0  0  0  0  0  0  0  0  0  0
    8.0050  -10.9991   26.2299 C   0  0  0  0  0  0  0  0  0  0  0  0
    3.5681  -16.2691   29.6668 H   0  0  0  0  0  0  0  0  0  0  0  0
    3.0541  -15.5385   28.4737 H   0  0  0  0  0  0  0  0  0  0  0  0
    4.9822  -16.4504   29.2229 H   0  0  0  0  0  0  0  0  0  0  0  0
    3.9821  -17.3929   26.9373 H   0  0  0  0  0  0  0  0  0  0  0  0
    4.4495  -18.0911   28.4978 H   0  0  0  0  0  0  0  0  0  0  0  0
    0.7567  -16.1422   29.1800 H   0  0  0  0  0  0  0  0  0  0  0  0
   -1.0703  -17.7904   28.5249 H   0  0  0  0  0  0  0  0  0  0  0  0
   -0.1423  -19.7855   27.2424 H   0  0  0  0  0  0  0  0  0  0  0  0
    7.5755  -11.6812   24.6260 H   0  0  0  0  0  0  0  0  0  0  0  0
    6.5804  -11.7390   25.4951 H   0  0  0  0  0  0  0  0  0  0  0  0
    9.0115  -13.0578   24.2259 H   0  0  0  0  0  0  0  0  0  0  0  0
    9.7814  -13.1212   25.8577 H   0  0  0  0  0  0  0  0  0  0  0  0
   11.7883  -11.7462   23.6054 H   0  0  0  0  0  0  0  0  0  0  0  0
   11.3076   -7.5995   24.7522 H   0  0  0  0  0  0  0  0  0  0  0  0
    9.2171   -8.1835   26.0011 H   0  0  0  0  0  0  0  0  0  0  0  0
    7.1605  -10.1125   26.3759 H   0  0  0  0  0  0  0  0  0  0  0  0
    8.4116  -10.8613   27.3677 H   0  0  0  0  0  0  0  0  0  0  0  0
  1  2  1  0
  2  3  1  0
  3  4  1  0
  4  5  2  0
  5  6  1  0
  6  7  1  0
  7  8  2  0
  2  9  1  0
  9 10  2  0
  9 11  1  0
 11 12  2  0
 11 13  1  0
 13 14  1  0
 14 15  1  0
 15 16  1  0
 16 17  2  0
 17 18  1  0
 18 19  1  0
 18 20  2  0
 20 21  1  0
 21 22  2  0
 22 23  1  0
  8  4  1  0
 23 13  1  0
 22 16  1  0
  1 24  1  0
  1 25  1  0
  1 26  1  0
  3 27  1  0
  3 28  1  0
  5 29  1  0
  6 30  1  0
  7 31  1  0
 14 32  1  0
 14 33  1  0
 15 34  1  0
 15 35  1  0
 17 36  1  0
 20 37  1  0
 21 38  1  0
 23 39  1  0
 23 40  1  0
M  END
>  <Energy>  (746) 
1643.0023217800451

>  <compound_id>  (746) 
63790

>  <target_id>  (746) 
1

>  <reference_id>  (746) 
64

>  <inspiration_ids>  (746) 
[146, 64]

>  <energy_score>  (746) 
1533.1096238585028

>  <distance_score>  (746) 
14.306140228603766

>  <path>  (746) 
/opt/xchem-fragalysis-2/maxwin/BulkDock/SCRATCH/511024/C63790-P64/C63790-P64.minimised.mol

>  <scratch_subdir>  (746) 
/opt/xchem-fragalysis-2/maxwin/BulkDock/SCRATCH/511024/C63790-P64

>  <fragmenstein_runtime>  (746) 
32.123265981674194

>  <fragmenstein_outcome>  (746) 
too moved

>  <fragmenstein_mode>  (746) 
expansion

>  <fragmenstein_error>  (746) 


$$$$
C66926-P146
     RDKit          3D

 31 33  0  0  0  0  0  0  0  0999 V2000
   11.9875  -11.7856   17.3334 Cl  0  0  0  0  0  0  0  0  0  0  0  0
   10.5402  -11.7079   18.2593 C   0  0  0  0  0  0  0  0  0  0  0  0
    9.3252  -11.5239   17.6108 C   0  0  0  0  0  0  0  0  0  0  0  0
    8.1419  -11.5849   18.3460 C   0  0  0  0  0  0  0  0  0  0  0  0
    8.1693  -11.8367   19.7293 C   0  0  0  0  0  0  0  0  0  0  0  0
    9.3945  -11.8845   20.3968 C   0  0  0  0  0  0  0  0  0  0  0  0
   10.5825  -11.8572   19.6482 C   0  0  0  0  0  0  0  0  0  0  0  0
    9.4004  -12.0932   21.8898 C   0  0  0  0  0  0  0  0  0  0  0  0
    8.0008  -11.9697   22.5643 C   0  0  0  0  0  0  0  0  0  0  0  0
    6.9463  -12.7138   21.8326 N   0  0  0  0  0  0  0  0  0  0  0  0
    5.5776  -12.5885   22.4864 C   0  0  0  0  0  0  0  0  0  0  0  0
    4.9595  -13.6188   23.4661 C   0  0  0  0  0  0  0  0  0  0  0  0
    3.7436  -13.5166   24.0079 N   0  0  0  0  0  0  0  0  0  0  0  0
    3.5378  -14.6522   24.7546 C   0  0  0  0  0  0  0  0  0  0  0  0
    4.6395  -15.4649   24.6866 C   0  0  0  0  0  0  0  0  0  0  0  0
    5.5256  -14.8089   23.8627 N   0  0  0  0  0  0  0  0  0  0  0  0
    6.8676  -12.0459   20.4801 C   0  0  0  0  0  0  0  0  0  0  0  0
    9.2852  -11.3703   16.5357 H   0  0  0  0  0  0  0  0  0  0  0  0
    7.1863  -11.4924   17.8299 H   0  0  0  0  0  0  0  0  0  0  0  0
   11.5372  -12.0122   20.1432 H   0  0  0  0  0  0  0  0  0  0  0  0
    9.7913  -13.0996   22.0870 H   0  0  0  0  0  0  0  0  0  0  0  0
   10.0799  -11.3706   22.3569 H   0  0  0  0  0  0  0  0  0  0  0  0
    7.7355  -10.9064   22.6466 H   0  0  0  0  0  0  0  0  0  0  0  0
    8.0782  -12.3599   23.5862 H   0  0  0  0  0  0  0  0  0  0  0  0
    4.8548  -12.6393   21.6692 H   0  0  0  0  0  0  0  0  0  0  0  0
    5.4762  -11.5960   22.9416 H   0  0  0  0  0  0  0  0  0  0  0  0
    2.6168  -14.8147   25.2961 H   0  0  0  0  0  0  0  0  0  0  0  0
    4.8676  -16.4274   25.1196 H   0  0  0  0  0  0  0  0  0  0  0  0
    6.4404  -15.1306   23.5749 H   0  0  0  0  0  0  0  0  0  0  0  0
    6.2152  -12.6631   19.8529 H   0  0  0  0  0  0  0  0  0  0  0  0
    6.4482  -11.0506   20.6034 H   0  0  0  0  0  0  0  0  0  0  0  0
  1  2  1  0
  2  3  2  0
  3  4  1  0
  4  5  2  0
  5  6  1  0
  6  7  2  0
  6  8  1  0
  8  9  1  0
  9 10  1  0
 10 11  1  0
 11 12  1  0
 12 13  2  0
 13 14  1  0
 14 15  2  0
 15 16  1  0
 10 17  1  0
  7  2  1  0
 16 12  1  0
 17  5  1  0
  3 18  1  0
  4 19  1  0
  7 20  1  0
  8 21  1  0
  8 22  1  0
  9 23  1  0
  9 24  1  0
 11 25  1  0
 11 26  1  0
 14 27  1  0
 15 28  1  0
 16 29  1  0
 17 30  1  0
 17 31  1  0
M  END
>  <Energy>  (747) 
55.250834534487396

>  <compound_id>  (747) 
66926

>  <target_id>  (747) 
1

>  <reference_id>  (747) 
146

>  <inspiration_ids>  (747) 
[146, 64]

>  <energy_score>  (747) 
-12.914549677068749

>  <distance_score>  (747) 
14.978608683780934

>  <path>  (747) 
/opt/xchem-fragalysis-2/maxwin/BulkDock/SCRATCH/511024/C66926-P146/C66926-P146.minimised.mol

>  <scratch_subdir>  (747) 
/opt/xchem-fragalysis-2/maxwin/BulkDock/SCRATCH/511024/C66926-P146

>  <fragmenstein_runtime>  (747) 
12.59866976737976

>  <fragmenstein_outcome>  (747) 
too moved

>  <fragmenstein_mode>  (747) 
expansion

>  <fragmenstein_error>  (747) 


$$$$
C66926-P64
     RDKit          3D

 31 33  0  0  0  0  0  0  0  0999 V2000
   11.2761  -11.0611   15.8976 Cl  0  0  0  0  0  0  0  0  0  0  0  0
   10.1727  -11.7514   17.0010 C   0  0  0  0  0  0  0  0  0  0  0  0
   10.6388  -12.6787   17.9219 C   0  0  0  0  0  0  0  0  0  0  0  0
    9.7224  -13.4501   18.6358 C   0  0  0  0  0  0  0  0  0  0  0  0
    8.3409  -13.2932   18.4366 C   0  0  0  0  0  0  0  0  0  0  0  0
    7.8865  -12.2356   17.6272 C   0  0  0  0  0  0  0  0  0  0  0  0
    8.8119  -11.4814   16.8885 C   0  0  0  0  0  0  0  0  0  0  0  0
    6.4018  -12.0007   17.4720 C   0  0  0  0  0  0  0  0  0  0  0  0
    5.5309  -12.9124   18.3838 C   0  0  0  0  0  0  0  0  0  0  0  0
    6.0376  -14.2631   18.4398 N   0  0  0  0  0  0  0  0  0  0  0  0
    5.2570  -15.4851   18.1276 C   0  0  0  0  0  0  0  0  0  0  0  0
    3.9202  -16.3276   18.9772 C   0  0  0  0  0  0  0  0  0  0  0  0
    4.5293  -17.5730   20.2987 N   0  0  0  0  0  0  0  0  0  0  0  0
    3.0679  -19.0949   20.5635 C   0  0  0  0  0  0  0  0  0  0  0  0
    2.1324  -19.0760   18.8751 C   0  0  0  0  0  0  0  0  0  0  0  0
    2.3244  -17.2911   18.1040 N   0  0  0  0  0  0  0  0  0  0  0  0
    7.3628  -14.3101   19.0481 C   0  0  0  0  0  0  0  0  0  0  0  0
   11.7030  -12.8753   18.0208 H   0  0  0  0  0  0  0  0  0  0  0  0
   10.0899  -14.2371   19.2916 H   0  0  0  0  0  0  0  0  0  0  0  0
    8.4645  -10.7425   16.1717 H   0  0  0  0  0  0  0  0  0  0  0  0
    6.1409  -12.1848   16.4241 H   0  0  0  0  0  0  0  0  0  0  0  0
    6.1830  -10.9501   17.6910 H   0  0  0  0  0  0  0  0  0  0  0  0
    5.5488  -12.5138   19.4060 H   0  0  0  0  0  0  0  0  0  0  0  0
    4.4922  -12.8913   18.0674 H   0  0  0  0  0  0  0  0  0  0  0  0
    4.9363  -15.4297   17.0991 H   0  0  0  0  0  0  0  0  0  0  0  0
    6.0214  -16.2749   18.1332 H   0  0  0  0  0  0  0  0  0  0  0  0
    3.4439  -19.9619   21.1297 H   0  0  0  0  0  0  0  0  0  0  0  0
    2.1041  -19.8051   18.0667 H   0  0  0  0  0  0  0  0  0  0  0  0
    2.2417  -17.3257   17.0915 H   0  0  0  0  0  0  0  0  0  0  0  0
    7.2906  -14.1268   20.1270 H   0  0  0  0  0  0  0  0  0  0  0  0
    7.8013  -15.3059   18.9122 H   0  0  0  0  0  0  0  0  0  0  0  0
  1  2  1  0
  2  3  2  0
  3  4  1  0
  4  5  2  0
  5  6  1  0
  6  7  2  0
  6  8  1  0
  8  9  1  0
  9 10  1  0
 10 11  1  0
 11 12  1  0
 12 13  2  0
 13 14  1  0
 14 15  2  0
 15 16  1  0
 10 17  1  0
  7  2  1  0
 16 12  1  0
 17  5  1  0
  3 18  1  0
  4 19  1  0
  7 20  1  0
  8 21  1  0
  8 22  1  0
  9 23  1  0
  9 24  1  0
 11 25  1  0
 11 26  1  0
 14 27  1  0
 15 28  1  0
 16 29  1  0
 17 30  1  0
 17 31  1  0
M  END
>  <Energy>  (748) 
733.6684737678687

>  <compound_id>  (748) 
66926

>  <target_id>  (748) 
1

>  <reference_id>  (748) 
64

>  <inspiration_ids>  (748) 
[146, 64]

>  <energy_score>  (748) 
665.5030895563071

>  <distance_score>  (748) 
14.691015797469355

>  <path>  (748) 
/opt/xchem-fragalysis-2/maxwin/BulkDock/SCRATCH/511024/C66926-P64/C66926-P64.minimised.mol

>  <scratch_subdir>  (748) 
/opt/xchem-fragalysis-2/maxwin/BulkDock/SCRATCH/511024/C66926-P64

>  <fragmenstein_runtime>  (748) 
10.41703462600708

>  <fragmenstein_outcome>  (748) 
too moved

>  <fragmenstein_mode>  (748) 
expansion

>  <fragmenstein_error>  (748) 


$$$$
C66928-P146
     RDKit          3D

 31 33  0  0  0  0  0  0  0  0999 V2000
   -2.1620   -3.9158   17.6226 O   0  0  0  0  0  0  0  0  0  0  0  0
   -1.5344   -5.0411   16.9586 S   0  0  0  0  0  0  0  0  0  0  0  0
   -1.7340   -5.2704   15.5413 O   0  0  0  0  0  0  0  0  0  0  0  0
   -2.3910   -6.4563   17.7212 C   0  0  0  0  0  0  0  0  0  0  0  0
   -1.8825   -7.6146   18.1430 N   0  0  0  0  0  0  0  0  0  0  0  0
   -2.9580   -8.4030   18.4847 C   0  0  0  0  0  0  0  0  0  0  0  0
   -4.1282   -7.7539   18.1758 C   0  0  0  0  0  0  0  0  0  0  0  0
   -3.7637   -6.5071   17.7664 N   0  0  0  0  0  0  0  0  0  0  0  0
    0.1502   -4.9721   17.2344 N   0  0  0  0  0  0  0  0  0  0  0  0
    0.7537   -3.6074   17.3014 C   0  0  0  0  0  0  0  0  0  0  0  0
    2.0173   -3.6935   18.1581 C   0  0  0  0  0  0  0  0  0  0  0  0
    2.8879   -4.8508   17.7597 C   0  0  0  0  0  0  0  0  0  0  0  0
    4.0717   -5.0648   18.4410 C   0  0  0  0  0  0  0  0  0  0  0  0
    4.9114   -6.0942   18.0520 C   0  0  0  0  0  0  0  0  0  0  0  0
    6.2224   -6.4246   19.0618 Cl  0  0  0  0  0  0  0  0  0  0  0  0
    4.6131   -6.9123   16.9733 C   0  0  0  0  0  0  0  0  0  0  0  0
    3.3769   -6.7697   16.3542 C   0  0  0  0  0  0  0  0  0  0  0  0
    2.4752   -5.7937   16.8048 C   0  0  0  0  0  0  0  0  0  0  0  0
    1.0168   -5.8355   16.3679 C   0  0  0  0  0  0  0  0  0  0  0  0
   -2.7875   -9.4043   18.8605 H   0  0  0  0  0  0  0  0  0  0  0  0
   -5.1696   -8.0289   18.1811 H   0  0  0  0  0  0  0  0  0  0  0  0
   -4.3737   -5.7676   17.4419 H   0  0  0  0  0  0  0  0  0  0  0  0
    0.0730   -2.8896   17.7683 H   0  0  0  0  0  0  0  0  0  0  0  0
    0.9809   -3.2465   16.2908 H   0  0  0  0  0  0  0  0  0  0  0  0
    2.5773   -2.7549   18.0781 H   0  0  0  0  0  0  0  0  0  0  0  0
    1.7255   -3.8277   19.2079 H   0  0  0  0  0  0  0  0  0  0  0  0
    4.3225   -4.4486   19.3028 H   0  0  0  0  0  0  0  0  0  0  0  0
    5.2639   -7.7305   16.6870 H   0  0  0  0  0  0  0  0  0  0  0  0
    3.0793   -7.4809   15.5864 H   0  0  0  0  0  0  0  0  0  0  0  0
    0.9498   -5.5153   15.3223 H   0  0  0  0  0  0  0  0  0  0  0  0
    0.6684   -6.8690   16.4609 H   0  0  0  0  0  0  0  0  0  0  0  0
  1  2  2  0
  2  3  2  0
  2  4  1  0
  4  5  2  0
  5  6  1  0
  6  7  2  0
  7  8  1  0
  2  9  1  0
  9 10  1  0
 10 11  1  0
 11 12  1  0
 12 13  2  0
 13 14  1  0
 14 15  1  0
 14 16  2  0
 16 17  1  0
 17 18  2  0
 18 19  1  0
  8  4  1  0
 19  9  1  0
 18 12  1  0
  6 20  1  0
  7 21  1  0
  8 22  1  0
 10 23  1  0
 10 24  1  0
 11 25  1  0
 11 26  1  0
 13 27  1  0
 16 28  1  0
 17 29  1  0
 19 30  1  0
 19 31  1  0
M  END
>  <Energy>  (749) 
22.911844425899414

>  <compound_id>  (749) 
66928

>  <target_id>  (749) 
1

>  <reference_id>  (749) 
146

>  <inspiration_ids>  (749) 
[146, 64]

>  <energy_score>  (749) 
-44.17567735361831

>  <distance_score>  (749) 
15.949388914881906

>  <path>  (749) 
/opt/xchem-fragalysis-2/maxwin/BulkDock/SCRATCH/511024/C66928-P146/C66928-P146.minimised.mol

>  <scratch_subdir>  (749) 
/opt/xchem-fragalysis-2/maxwin/BulkDock/SCRATCH/511024/C66928-P146

>  <fragmenstein_runtime>  (749) 
16.47442364692688

>  <fragmenstein_outcome>  (749) 
too moved

>  <fragmenstein_mode>  (749) 
expansion

>  <fragmenstein_error>  (749) 


$$$$
C66928-P64
     RDKit          3D

 31 33  0  0  0  0  0  0  0  0999 V2000
    2.6763  -15.3223   17.1660 O   0  0  0  0  0  0  0  0  0  0  0  0
    2.2540  -14.2331   18.0523 S   0  0  0  0  0  0  0  0  0  0  0  0
    2.3949  -14.6661   19.4145 O   0  0  0  0  0  0  0  0  0  0  0  0
    0.0340  -13.5403   17.7632 C   0  0  0  0  0  0  0  0  0  0  0  0
   -0.7702  -12.3810   18.1217 N   0  0  0  0  0  0  0  0  0  0  0  0
   -2.1153  -12.4525   17.8697 C   0  0  0  0  0  0  0  0  0  0  0  0
   -2.2651  -13.6296   17.2009 C   0  0  0  0  0  0  0  0  0  0  0  0
   -1.5046  -14.2352   18.1100 N   0  0  0  0  0  0  0  0  0  0  0  0
    3.8703  -12.7399   18.0505 N   0  0  0  0  0  0  0  0  0  0  0  0
    5.1127  -13.2166   18.7511 C   0  0  0  0  0  0  0  0  0  0  0  0
    6.3591  -12.3062   18.7675 C   0  0  0  0  0  0  0  0  0  0  0  0
    6.7910  -11.7793   17.4447 C   0  0  0  0  0  0  0  0  0  0  0  0
    8.1593  -11.6248   17.1471 C   0  0  0  0  0  0  0  0  0  0  0  0
    8.5547  -11.1459   15.9048 C   0  0  0  0  0  0  0  0  0  0  0  0
   10.2218  -11.1261   15.5005 Cl  0  0  0  0  0  0  0  0  0  0  0  0
    7.5934  -10.7379   14.9866 C   0  0  0  0  0  0  0  0  0  0  0  0
    6.2310  -10.8487   15.3062 C   0  0  0  0  0  0  0  0  0  0  0  0
    5.8087  -11.4125   16.5276 C   0  0  0  0  0  0  0  0  0  0  0  0
    4.3017  -11.6053   16.8253 C   0  0  0  0  0  0  0  0  0  0  0  0
   -2.7574  -11.5931   18.0156 H   0  0  0  0  0  0  0  0  0  0  0  0
   -2.9924  -14.1535   16.6076 H   0  0  0  0  0  0  0  0  0  0  0  0
   -1.5767  -15.1400   18.5598 H   0  0  0  0  0  0  0  0  0  0  0  0
    5.3814  -14.2040   18.3664 H   0  0  0  0  0  0  0  0  0  0  0  0
    4.8630  -13.2172   19.8086 H   0  0  0  0  0  0  0  0  0  0  0  0
    7.1738  -12.8930   19.2132 H   0  0  0  0  0  0  0  0  0  0  0  0
    6.2172  -11.4549   19.4428 H   0  0  0  0  0  0  0  0  0  0  0  0
    8.9101  -11.9227   17.8743 H   0  0  0  0  0  0  0  0  0  0  0  0
    7.8888  -10.3378   14.0218 H   0  0  0  0  0  0  0  0  0  0  0  0
    5.4932  -10.5225   14.5753 H   0  0  0  0  0  0  0  0  0  0  0  0
    3.8837  -11.7726   15.8381 H   0  0  0  0  0  0  0  0  0  0  0  0
    3.8627  -10.6284   17.0444 H   0  0  0  0  0  0  0  0  0  0  0  0
  1  2  2  0
  2  3  2  0
  2  4  1  0
  4  5  2  0
  5  6  1  0
  6  7  2  0
  7  8  1  0
  2  9  1  0
  9 10  1  0
 10 11  1  0
 11 12  1  0
 12 13  2  0
 13 14  1  0
 14 15  1  0
 14 16  2  0
 16 17  1  0
 17 18  2  0
 18 19  1  0
  8  4  1  0
 19  9  1  0
 18 12  1  0
  6 20  1  0
  7 21  1  0
  8 22  1  0
 10 23  1  0
 10 24  1  0
 11 25  1  0
 11 26  1  0
 13 27  1  0
 16 28  1  0
 17 29  1  0
 19 30  1  0
 19 31  1  0
M  END
>  <Energy>  (750) 
294.5856357773352

>  <compound_id>  (750) 
66928

>  <target_id>  (750) 
1

>  <reference_id>  (750) 
64

>  <inspiration_ids>  (750) 
[146, 64]

>  <energy_score>  (750) 
227.4981139978192

>  <distance_score>  (750) 
14.86894332650533

>  <path>  (750) 
/opt/xchem-fragalysis-2/maxwin/BulkDock/SCRATCH/511024/C66928-P64/C66928-P64.minimised.mol

>  <scratch_subdir>  (750) 
/opt/xchem-fragalysis-2/maxwin/BulkDock/SCRATCH/511024/C66928-P64

>  <fragmenstein_runtime>  (750) 
9.302226305007935

>  <fragmenstein_outcome>  (750) 
too moved

>  <fragmenstein_mode>  (750) 
expansion

>  <fragmenstein_error>  (750) 


$$$$
C46375-P124
     RDKit          3D

 49 50  0  0  0  0  0  0  0  0999 V2000
   -0.2398  -19.9454   27.0836 C   0  0  0  0  0  0  0  0  0  0  0  0
    0.6432  -19.8661   28.3316 C   0  0  0  0  0  0  0  0  0  0  0  0
   -0.2763  -20.0296   29.5540 C   0  0  0  0  0  0  0  0  0  0  0  0
    1.6001  -18.2212   28.4265 S   0  0  0  0  0  0  0  0  0  0  0  0
    3.3840  -18.6131   27.8873 C   0  0  0  0  0  0  0  0  0  0  0  0
    3.4755  -18.9750   26.4174 C   0  0  0  0  0  0  0  0  0  0  0  0
    4.4591  -17.5259   28.4571 C   0  0  0  0  0  0  0  0  0  0  0  0
    4.1779  -16.9589   29.4867 O   0  0  0  0  0  0  0  0  0  0  0  0
    5.6768  -17.4798   27.6572 N   0  0  0  0  0  0  0  0  0  0  0  0
    6.9949  -16.8077   27.9151 C   0  0  0  0  0  0  0  0  0  0  0  0
    6.9506  -15.3126   28.1466 C   0  0  0  0  0  0  0  0  0  0  0  0
    5.9113  -14.9445   27.1498 C   0  0  0  0  0  0  0  0  0  0  0  0
    6.3454  -13.8393   26.2875 N   0  0  0  0  0  0  0  0  0  0  0  0
    7.5529  -13.6681   25.4854 C   0  0  0  0  0  0  0  0  0  0  0  0
    8.4580  -14.4222   25.2667 O   0  0  0  0  0  0  0  0  0  0  0  0
    7.6212  -12.1933   24.9528 C   0  0  0  0  0  0  0  0  0  0  0  0
    8.5463  -11.9335   23.7287 C   0  0  0  0  0  0  0  0  0  0  0  0
    8.0122  -10.9704   22.7012 C   0  0  0  0  0  0  0  0  0  0  0  0
    8.4570  -10.7676   21.4070 C   0  0  0  0  0  0  0  0  0  0  0  0
    7.5135   -9.9696   20.8204 N   0  0  0  0  0  0  0  0  0  0  0  0
    6.5905   -9.6546   21.7775 C   0  0  0  0  0  0  0  0  0  0  0  0
    6.8915  -10.2014   22.9339 N   0  0  0  0  0  0  0  0  0  0  0  0
    5.5837  -16.3532   26.5803 C   0  0  0  0  0  0  0  0  0  0  0  0
   -0.9857  -19.1429   27.0645 H   0  0  0  0  0  0  0  0  0  0  0  0
   -0.7727  -20.9017   27.0446 H   0  0  0  0  0  0  0  0  0  0  0  0
    0.3618  -19.8697   26.1725 H   0  0  0  0  0  0  0  0  0  0  0  0
    1.3820  -20.6738   28.3249 H   0  0  0  0  0  0  0  0  0  0  0  0
   -1.0281  -19.2341   29.6027 H   0  0  0  0  0  0  0  0  0  0  0  0
   -0.8017  -20.9902   29.5175 H   0  0  0  0  0  0  0  0  0  0  0  0
    0.3061  -20.0078   30.4813 H   0  0  0  0  0  0  0  0  0  0  0  0
    3.6352  -19.5170   28.4586 H   0  0  0  0  0  0  0  0  0  0  0  0
    4.4830  -19.3220   26.1644 H   0  0  0  0  0  0  0  0  0  0  0  0
    2.7892  -19.7879   26.1608 H   0  0  0  0  0  0  0  0  0  0  0  0
    3.2583  -18.1289   25.7694 H   0  0  0  0  0  0  0  0  0  0  0  0
    7.3713  -17.2748   28.8349 H   0  0  0  0  0  0  0  0  0  0  0  0
    7.7198  -17.0992   27.1374 H   0  0  0  0  0  0  0  0  0  0  0  0
    6.6084  -15.0877   29.1633 H   0  0  0  0  0  0  0  0  0  0  0  0
    7.9342  -14.8541   28.0112 H   0  0  0  0  0  0  0  0  0  0  0  0
    5.0242  -14.5684   27.6747 H   0  0  0  0  0  0  0  0  0  0  0  0
    5.7565  -13.0182   26.1814 H   0  0  0  0  0  0  0  0  0  0  0  0
    7.9790  -11.5818   25.7916 H   0  0  0  0  0  0  0  0  0  0  0  0
    6.6095  -11.8486   24.7411 H   0  0  0  0  0  0  0  0  0  0  0  0
    8.7480  -12.8835   23.2187 H   0  0  0  0  0  0  0  0  0  0  0  0
    9.5122  -11.5593   24.0893 H   0  0  0  0  0  0  0  0  0  0  0  0
    9.2845  -11.1850   20.8498 H   0  0  0  0  0  0  0  0  0  0  0  0
    7.4925   -9.6718   19.8538 H   0  0  0  0  0  0  0  0  0  0  0  0
    5.7330   -9.0258   21.5726 H   0  0  0  0  0  0  0  0  0  0  0  0
    4.5593  -16.3409   26.2130 H   0  0  0  0  0  0  0  0  0  0  0  0
    6.2082  -16.6226   25.7137 H   0  0  0  0  0  0  0  0  0  0  0  0
  1  2  1  0
  2  3  1  0
  2  4  1  0
  4  5  1  0
  5  6  1  0
  5  7  1  0
  7  8  2  0
  7  9  1  0
  9 10  1  0
 10 11  1  0
 11 12  1  0
 12 13  1  0
 13 14  1  0
 14 15  2  0
 14 16  1  0
 16 17  1  0
 17 18  1  0
 18 19  2  0
 19 20  1  0
 20 21  1  0
 21 22  2  0
 12 23  1  0
 23  9  1  0
 22 18  1  0
  1 24  1  0
  1 25  1  0
  1 26  1  0
  2 27  1  0
  3 28  1  0
  3 29  1  0
  3 30  1  0
  5 31  1  0
  6 32  1  0
  6 33  1  0
  6 34  1  0
 10 35  1  0
 10 36  1  0
 11 37  1  0
 11 38  1  0
 12 39  1  0
 13 40  1  0
 16 41  1  0
 16 42  1  0
 17 43  1  0
 17 44  1  0
 19 45  1  0
 20 46  1  0
 21 47  1  0
 23 48  1  0
 23 49  1  0
M  END
>  <Energy>  (751) 
99.144450884313684

>  <compound_id>  (751) 
46375

>  <target_id>  (751) 
1

>  <reference_id>  (751) 
124

>  <inspiration_ids>  (751) 
[124, 64]

>  <energy_score>  (751) 
38.291122269387444

>  <distance_score>  (751) 
17.484011320142947

>  <path>  (751) 
/opt/xchem-fragalysis-2/maxwin/BulkDock/SCRATCH/511024/C46375-P124/C46375-P124.minimised.mol

>  <scratch_subdir>  (751) 
/opt/xchem-fragalysis-2/maxwin/BulkDock/SCRATCH/511024/C46375-P124

>  <fragmenstein_runtime>  (751) 
29.336560249328613

>  <fragmenstein_outcome>  (751) 
too moved

>  <fragmenstein_mode>  (751) 
expansion

>  <fragmenstein_error>  (751) 


$$$$
C46375-P64
     RDKit          3D

 49 50  0  0  0  0  0  0  0  0999 V2000
    3.4781   -8.5651   21.1990 C   0  0  0  0  0  0  0  0  0  0  0  0
    4.8375   -8.9614   21.7508 C   0  0  0  0  0  0  0  0  0  0  0  0
    5.1919  -10.4542   21.7862 C   0  0  0  0  0  0  0  0  0  0  0  0
    6.1133   -8.1049   20.6648 S   0  0  0  0  0  0  0  0  0  0  0  0
    6.1054   -6.3389   21.2869 C   0  0  0  0  0  0  0  0  0  0  0  0
    6.1974   -6.1419   22.8010 C   0  0  0  0  0  0  0  0  0  0  0  0
    6.8952   -5.1881   20.4176 C   0  0  0  0  0  0  0  0  0  0  0  0
    6.2047   -4.7258   19.5486 O   0  0  0  0  0  0  0  0  0  0  0  0
    8.4321   -4.7601   20.9258 N   0  0  0  0  0  0  0  0  0  0  0  0
    9.2608   -3.7042   20.5485 C   0  0  0  0  0  0  0  0  0  0  0  0
   11.4081   -3.6388   20.9212 C   0  0  0  0  0  0  0  0  0  0  0  0
   11.7986   -5.0642   20.5026 C   0  0  0  0  0  0  0  0  0  0  0  0
   12.6900   -4.8434   19.3327 N   0  0  0  0  0  0  0  0  0  0  0  0
   14.1043   -4.6910   19.2481 C   0  0  0  0  0  0  0  0  0  0  0  0
   14.9507   -4.7820   20.0861 O   0  0  0  0  0  0  0  0  0  0  0  0
   14.4654   -4.2452   17.8215 C   0  0  0  0  0  0  0  0  0  0  0  0
   14.1613   -2.7637   17.5864 C   0  0  0  0  0  0  0  0  0  0  0  0
   13.0082   -2.4260   16.6893 C   0  0  0  0  0  0  0  0  0  0  0  0
   12.0729   -3.2070   16.0440 C   0  0  0  0  0  0  0  0  0  0  0  0
   11.3541   -2.3528   15.2453 N   0  0  0  0  0  0  0  0  0  0  0  0
   11.8085   -1.0916   15.4978 C   0  0  0  0  0  0  0  0  0  0  0  0
   12.7799   -1.1001   16.3808 N   0  0  0  0  0  0  0  0  0  0  0  0
   10.0545   -5.5540   20.1721 C   0  0  0  0  0  0  0  0  0  0  0  0
    3.3478   -7.4774   21.2462 H   0  0  0  0  0  0  0  0  0  0  0  0
    2.6511   -8.9526   21.7583 H   0  0  0  0  0  0  0  0  0  0  0  0
    3.3661   -8.8404   20.1449 H   0  0  0  0  0  0  0  0  0  0  0  0
    4.9735   -8.5624   22.7541 H   0  0  0  0  0  0  0  0  0  0  0  0
    5.4217  -10.8447   20.7885 H   0  0  0  0  0  0  0  0  0  0  0  0
    4.4210  -11.0678   22.2301 H   0  0  0  0  0  0  0  0  0  0  0  0
    6.0979  -10.6013   22.3874 H   0  0  0  0  0  0  0  0  0  0  0  0
    5.0658   -6.0507   21.0700 H   0  0  0  0  0  0  0  0  0  0  0  0
    5.2230   -6.3217   23.2698 H   0  0  0  0  0  0  0  0  0  0  0  0
    6.4810   -5.1137   23.0486 H   0  0  0  0  0  0  0  0  0  0  0  0
    6.9067   -6.8156   23.2860 H   0  0  0  0  0  0  0  0  0  0  0  0
    8.8252   -4.0226   19.6809 H   0  0  0  0  0  0  0  0  0  0  0  0
    8.5233   -3.3038   21.3036 H   0  0  0  0  0  0  0  0  0  0  0  0
   12.0840   -2.9851   20.3580 H   0  0  0  0  0  0  0  0  0  0  0  0
   11.7572   -3.5640   21.9942 H   0  0  0  0  0  0  0  0  0  0  0  0
   12.3582   -5.6264   21.2524 H   0  0  0  0  0  0  0  0  0  0  0  0
   12.2789   -4.6110   18.4370 H   0  0  0  0  0  0  0  0  0  0  0  0
   13.9673   -4.8825   17.0875 H   0  0  0  0  0  0  0  0  0  0  0  0
   15.5425   -4.4206   17.7049 H   0  0  0  0  0  0  0  0  0  0  0  0
   15.0498   -2.3176   17.1187 H   0  0  0  0  0  0  0  0  0  0  0  0
   14.0314   -2.2408   18.5406 H   0  0  0  0  0  0  0  0  0  0  0  0
   11.8802   -4.2677   16.0393 H   0  0  0  0  0  0  0  0  0  0  0  0
   10.6291   -2.5878   14.5732 H   0  0  0  0  0  0  0  0  0  0  0  0
   11.3990   -0.2212   15.0019 H   0  0  0  0  0  0  0  0  0  0  0  0
   10.2408   -6.5048   20.5764 H   0  0  0  0  0  0  0  0  0  0  0  0
    9.9672   -5.7420   19.1444 H   0  0  0  0  0  0  0  0  0  0  0  0
  1  2  1  0
  2  3  1  0
  2  4  1  0
  4  5  1  0
  5  6  1  0
  5  7  1  0
  7  8  2  0
  7  9  1  0
  9 10  1  0
 10 11  1  0
 11 12  1  0
 12 13  1  0
 13 14  1  0
 14 15  2  0
 14 16  1  0
 16 17  1  0
 17 18  1  0
 18 19  2  0
 19 20  1  0
 20 21  1  0
 21 22  2  0
 12 23  1  0
 23  9  1  0
 22 18  1  0
  1 24  1  0
  1 25  1  0
  1 26  1  0
  2 27  1  0
  3 28  1  0
  3 29  1  0
  3 30  1  0
  5 31  1  0
  6 32  1  0
  6 33  1  0
  6 34  1  0
 10 35  1  0
 10 36  1  0
 11 37  1  0
 11 38  1  0
 12 39  1  0
 13 40  1  0
 16 41  1  0
 16 42  1  0
 17 43  1  0
 17 44  1  0
 19 45  1  0
 20 46  1  0
 21 47  1  0
 23 48  1  0
 23 49  1  0
M  END
>  <Energy>  (752) 
437.14057076959227

>  <compound_id>  (752) 
46375

>  <target_id>  (752) 
1

>  <reference_id>  (752) 
64

>  <inspiration_ids>  (752) 
[124, 64]

>  <energy_score>  (752) 
376.28724215466434

>  <distance_score>  (752) 
13.90613981377824

>  <path>  (752) 
/opt/xchem-fragalysis-2/maxwin/BulkDock/SCRATCH/511024/C46375-P64/C46375-P64.minimised.mol

>  <scratch_subdir>  (752) 
/opt/xchem-fragalysis-2/maxwin/BulkDock/SCRATCH/511024/C46375-P64

>  <fragmenstein_runtime>  (752) 
29.41985034942627

>  <fragmenstein_outcome>  (752) 
too moved

>  <fragmenstein_mode>  (752) 
expansion

>  <fragmenstein_error>  (752) 


$$$$
C18085-P124
     RDKit          3D

 47 48  0  0  0  0  0  0  0  0999 V2000
    2.8228   -8.8838   23.3242 C   0  0  0  0  0  0  0  0  0  0  0  0
    3.7645  -10.0242   23.0772 N   0  0  0  0  0  0  0  0  0  0  0  0
    2.4218  -10.8699   23.2489 C   0  0  0  0  0  0  0  0  0  0  0  0
    2.7130  -12.4315   23.3712 C   0  0  0  0  0  0  0  0  0  0  0  0
    1.5310  -13.3014   24.2011 N   0  0  0  0  0  0  0  0  0  0  0  0
   -0.0093  -14.2018   23.6132 C   0  0  0  0  0  0  0  0  0  0  0  0
   -0.1978  -14.2785   22.4497 O   0  0  0  0  0  0  0  0  0  0  0  0
   -1.4954  -15.2062   24.6053 C   0  0  0  0  0  0  0  0  0  0  0  0
   -2.1086  -17.0449   25.0957 N   0  0  0  0  0  0  0  0  0  0  0  0
   -2.6828  -16.7475   26.2739 C   0  0  0  0  0  0  0  0  0  0  0  0
   -2.6460  -17.7273   27.2323 C   0  0  0  0  0  0  0  0  0  0  0  0
   -1.9808  -18.9094   26.6452 C   0  0  0  0  0  0  0  0  0  0  0  0
   -0.9706  -18.1012   26.1087 C   0  0  0  0  0  0  0  0  0  0  0  0
    4.5736   -9.7570   21.8969 C   0  0  0  0  0  0  0  0  0  0  0  0
    4.3833  -10.0327   20.7407 O   0  0  0  0  0  0  0  0  0  0  0  0
    5.8817   -8.9942   22.2838 C   0  0  0  0  0  0  0  0  0  0  0  0
    6.7285   -8.5386   21.0552 C   0  0  0  0  0  0  0  0  0  0  0  0
    7.9122   -7.6794   21.4056 C   0  0  0  0  0  0  0  0  0  0  0  0
    9.1512   -8.0764   21.6199 N   0  0  0  0  0  0  0  0  0  0  0  0
    9.8527   -6.9520   21.9680 C   0  0  0  0  0  0  0  0  0  0  0  0
    9.0545   -5.8391   21.8833 C   0  0  0  0  0  0  0  0  0  0  0  0
    7.8322   -6.3088   21.5010 N   0  0  0  0  0  0  0  0  0  0  0  0
    2.0496   -8.7472   22.5534 H   0  0  0  0  0  0  0  0  0  0  0  0
    3.4229   -7.9676   23.2313 H   0  0  0  0  0  0  0  0  0  0  0  0
    2.4532   -8.8289   24.3576 H   0  0  0  0  0  0  0  0  0  0  0  0
    1.8633  -10.6262   24.1619 H   0  0  0  0  0  0  0  0  0  0  0  0
    1.7813  -10.7391   22.3683 H   0  0  0  0  0  0  0  0  0  0  0  0
    3.1145  -12.7494   22.4189 H   0  0  0  0  0  0  0  0  0  0  0  0
    3.5579  -12.5689   24.0079 H   0  0  0  0  0  0  0  0  0  0  0  0
    1.5038  -13.2432   25.2203 H   0  0  0  0  0  0  0  0  0  0  0  0
   -1.9472  -14.5366   25.3672 H   0  0  0  0  0  0  0  0  0  0  0  0
   -2.3035  -15.2871   23.8921 H   0  0  0  0  0  0  0  0  0  0  0  0
   -3.3617  -16.5372   25.4787 H   0  0  0  0  0  0  0  0  0  0  0  0
   -2.2948  -15.8258   26.8653 H   0  0  0  0  0  0  0  0  0  0  0  0
   -3.6581  -17.5572   27.6261 H   0  0  0  0  0  0  0  0  0  0  0  0
   -1.9186  -17.2406   27.8116 H   0  0  0  0  0  0  0  0  0  0  0  0
   -1.5054  -19.6793   27.2170 H   0  0  0  0  0  0  0  0  0  0  0  0
   -2.4685  -19.3598   25.8135 H   0  0  0  0  0  0  0  0  0  0  0  0
   -0.4483  -17.7230   27.0010 H   0  0  0  0  0  0  0  0  0  0  0  0
   -0.1119  -18.5730   25.6805 H   0  0  0  0  0  0  0  0  0  0  0  0
    5.6158   -8.1161   22.8818 H   0  0  0  0  0  0  0  0  0  0  0  0
    6.4826   -9.6595   22.9152 H   0  0  0  0  0  0  0  0  0  0  0  0
    6.0851   -7.9914   20.3545 H   0  0  0  0  0  0  0  0  0  0  0  0
    7.0834   -9.4268   20.5177 H   0  0  0  0  0  0  0  0  0  0  0  0
   10.9007   -7.0000   22.2350 H   0  0  0  0  0  0  0  0  0  0  0  0
    9.2551   -4.7917   22.0512 H   0  0  0  0  0  0  0  0  0  0  0  0
    6.9946   -5.7590   21.3672 H   0  0  0  0  0  0  0  0  0  0  0  0
  1  2  1  0
  2  3  1  0
  3  4  1  0
  4  5  1  0
  5  6  1  0
  6  7  2  0
  6  8  1  0
  8  9  1  0
  9 10  1  0
 10 11  1  0
 11 12  1  0
 12 13  1  0
  2 14  1  0
 14 15  2  0
 14 16  1  0
 16 17  1  0
 17 18  1  0
 18 19  2  0
 19 20  1  0
 20 21  2  0
 21 22  1  0
 13  9  1  0
 22 18  1  0
  1 23  1  0
  1 24  1  0
  1 25  1  0
  3 26  1  0
  3 27  1  0
  4 28  1  0
  4 29  1  0
  5 30  1  0
  8 31  1  0
  8 32  1  0
 10 33  1  0
 10 34  1  0
 11 35  1  0
 11 36  1  0
 12 37  1  0
 12 38  1  0
 13 39  1  0
 13 40  1  0
 16 41  1  0
 16 42  1  0
 17 43  1  0
 17 44  1  0
 20 45  1  0
 21 46  1  0
 22 47  1  0
M  END
>  <Energy>  (753) 
555.75815777954392

>  <compound_id>  (753) 
18085

>  <target_id>  (753) 
1

>  <reference_id>  (753) 
124

>  <inspiration_ids>  (753) 
[124, 64]

>  <energy_score>  (753) 
508.3855582748165

>  <distance_score>  (753) 
13.042899503787975

>  <path>  (753) 
/opt/xchem-fragalysis-2/maxwin/BulkDock/SCRATCH/511024/C18085-P124/C18085-P124.minimised.mol

>  <scratch_subdir>  (753) 
/opt/xchem-fragalysis-2/maxwin/BulkDock/SCRATCH/511024/C18085-P124

>  <fragmenstein_runtime>  (753) 
25.089955806732178

>  <fragmenstein_outcome>  (753) 
too moved

>  <fragmenstein_mode>  (753) 
expansion

>  <fragmenstein_error>  (753) 


$$$$
C18085-P64
     RDKit          3D

 47 48  0  0  0  0  0  0  0  0999 V2000
   11.2397  -10.1440   10.7031 C   0  0  0  0  0  0  0  0  0  0  0  0
   11.7270   -9.5263    9.4868 N   0  0  0  0  0  0  0  0  0  0  0  0
   10.8928  -10.7345    8.8291 C   0  0  0  0  0  0  0  0  0  0  0  0
    9.2589  -11.0694    9.1961 C   0  0  0  0  0  0  0  0  0  0  0  0
    8.7763  -11.9986   10.3298 N   0  0  0  0  0  0  0  0  0  0  0  0
    7.4192  -12.1312   10.9883 C   0  0  0  0  0  0  0  0  0  0  0  0
    6.4131  -11.4867   10.8393 O   0  0  0  0  0  0  0  0  0  0  0  0
    7.3590  -13.3666   12.0874 C   0  0  0  0  0  0  0  0  0  0  0  0
    5.9642  -13.8922   12.5318 N   0  0  0  0  0  0  0  0  0  0  0  0
    5.2415  -13.0441   13.5071 C   0  0  0  0  0  0  0  0  0  0  0  0
    4.1741  -13.9504   14.1604 C   0  0  0  0  0  0  0  0  0  0  0  0
    4.6554  -15.3716   13.9176 C   0  0  0  0  0  0  0  0  0  0  0  0
    6.0227  -15.1945   13.2449 C   0  0  0  0  0  0  0  0  0  0  0  0
   11.4558   -8.0405    9.4975 C   0  0  0  0  0  0  0  0  0  0  0  0
   10.5070   -7.4220    9.0910 O   0  0  0  0  0  0  0  0  0  0  0  0
   12.6350   -7.1381   10.3210 C   0  0  0  0  0  0  0  0  0  0  0  0
   12.5101   -5.5119   11.0310 C   0  0  0  0  0  0  0  0  0  0  0  0
   13.6998   -4.1383   11.5618 C   0  0  0  0  0  0  0  0  0  0  0  0
   14.7708   -3.5979   10.9633 N   0  0  0  0  0  0  0  0  0  0  0  0
   15.1477   -2.4352   11.5939 C   0  0  0  0  0  0  0  0  0  0  0  0
   14.2729   -2.1227   12.5903 C   0  0  0  0  0  0  0  0  0  0  0  0
   13.3534   -3.1328   12.5734 N   0  0  0  0  0  0  0  0  0  0  0  0
   11.8781   -9.7706   11.4980 H   0  0  0  0  0  0  0  0  0  0  0  0
   10.2260   -9.8329   10.8783 H   0  0  0  0  0  0  0  0  0  0  0  0
   11.4125  -11.2249   10.8341 H   0  0  0  0  0  0  0  0  0  0  0  0
   11.4920  -11.6575    8.8523 H   0  0  0  0  0  0  0  0  0  0  0  0
   10.8567  -10.4174    7.7777 H   0  0  0  0  0  0  0  0  0  0  0  0
    8.7147  -10.1237    9.3010 H   0  0  0  0  0  0  0  0  0  0  0  0
    8.8663  -11.5595    8.2966 H   0  0  0  0  0  0  0  0  0  0  0  0
    9.3695  -12.7630   10.6310 H   0  0  0  0  0  0  0  0  0  0  0  0
    7.9331  -13.0554   12.9670 H   0  0  0  0  0  0  0  0  0  0  0  0
    7.8734  -14.2067   11.6057 H   0  0  0  0  0  0  0  0  0  0  0  0
    5.9271  -12.6803   14.2827 H   0  0  0  0  0  0  0  0  0  0  0  0
    4.7815  -12.1785   13.0213 H   0  0  0  0  0  0  0  0  0  0  0  0
    3.1967  -13.7984   13.6892 H   0  0  0  0  0  0  0  0  0  0  0  0
    4.0759  -13.7316   15.2286 H   0  0  0  0  0  0  0  0  0  0  0  0
    3.9628  -15.8909   13.2456 H   0  0  0  0  0  0  0  0  0  0  0  0
    4.7312  -15.9476   14.8446 H   0  0  0  0  0  0  0  0  0  0  0  0
    6.8090  -15.1749   14.0103 H   0  0  0  0  0  0  0  0  0  0  0  0
    6.2342  -16.0156   12.5529 H   0  0  0  0  0  0  0  0  0  0  0  0
   13.6247   -7.4894   10.0456 H   0  0  0  0  0  0  0  0  0  0  0  0
   12.4296   -7.6810   11.2034 H   0  0  0  0  0  0  0  0  0  0  0  0
   11.8255   -5.5342   11.8690 H   0  0  0  0  0  0  0  0  0  0  0  0
   11.9234   -5.1232   10.2195 H   0  0  0  0  0  0  0  0  0  0  0  0
   16.0197   -1.8848   11.2707 H   0  0  0  0  0  0  0  0  0  0  0  0
   14.2060   -1.2938   13.2783 H   0  0  0  0  0  0  0  0  0  0  0  0
   12.5050   -3.1796   13.1241 H   0  0  0  0  0  0  0  0  0  0  0  0
  1  2  1  0
  2  3  1  0
  3  4  1  0
  4  5  1  0
  5  6  1  0
  6  7  2  0
  6  8  1  0
  8  9  1  0
  9 10  1  0
 10 11  1  0
 11 12  1  0
 12 13  1  0
  2 14  1  0
 14 15  2  0
 14 16  1  0
 16 17  1  0
 17 18  1  0
 18 19  2  0
 19 20  1  0
 20 21  2  0
 21 22  1  0
 13  9  1  0
 22 18  1  0
  1 23  1  0
  1 24  1  0
  1 25  1  0
  3 26  1  0
  3 27  1  0
  4 28  1  0
  4 29  1  0
  5 30  1  0
  8 31  1  0
  8 32  1  0
 10 33  1  0
 10 34  1  0
 11 35  1  0
 11 36  1  0
 12 37  1  0
 12 38  1  0
 13 39  1  0
 13 40  1  0
 16 41  1  0
 16 42  1  0
 17 43  1  0
 17 44  1  0
 20 45  1  0
 21 46  1  0
 22 47  1  0
M  END
>  <Energy>  (754) 
254.69814029153284

>  <compound_id>  (754) 
18085

>  <target_id>  (754) 
1

>  <reference_id>  (754) 
64

>  <inspiration_ids>  (754) 
[124, 64]

>  <energy_score>  (754) 
207.32554078679254

>  <distance_score>  (754) 
15.34791212577369

>  <path>  (754) 
/opt/xchem-fragalysis-2/maxwin/BulkDock/SCRATCH/511024/C18085-P64/C18085-P64.minimised.mol

>  <scratch_subdir>  (754) 
/opt/xchem-fragalysis-2/maxwin/BulkDock/SCRATCH/511024/C18085-P64

>  <fragmenstein_runtime>  (754) 
34.170371770858765

>  <fragmenstein_outcome>  (754) 
too moved

>  <fragmenstein_mode>  (754) 
expansion

>  <fragmenstein_error>  (754) 


$$$$
C18086-P124
     RDKit          3D

 43 44  0  0  0  0  0  0  0  0999 V2000
    7.9643   -8.9244   14.0375 C   0  0  0  0  0  0  0  0  0  0  0  0
    6.7583   -9.5787   14.6959 C   0  0  0  0  0  0  0  0  0  0  0  0
    6.2784  -10.7529   13.8522 C   0  0  0  0  0  0  0  0  0  0  0  0
    5.4564   -8.3686   14.9895 S   0  0  0  0  0  0  0  0  0  0  0  0
    6.0016   -7.4293   15.9593 O   0  0  0  0  0  0  0  0  0  0  0  0
    4.9671   -7.9014   13.7075 O   0  0  0  0  0  0  0  0  0  0  0  0
    4.1020   -9.2400   15.7920 C   0  0  0  0  0  0  0  0  0  0  0  0
    3.1491   -8.2940   16.4404 C   0  0  0  0  0  0  0  0  0  0  0  0
    1.9541   -8.5214   15.5456 C   0  0  0  0  0  0  0  0  0  0  0  0
    1.6265   -9.9659   15.3543 N   0  0  0  0  0  0  0  0  0  0  0  0
    0.6962  -10.6549   14.3310 C   0  0  0  0  0  0  0  0  0  0  0  0
    0.1127  -10.1802   13.4208 O   0  0  0  0  0  0  0  0  0  0  0  0
    0.6543  -12.0590   14.8726 N   0  0  0  0  0  0  0  0  0  0  0  0
    1.7110  -12.9093   14.2022 C   0  0  0  0  0  0  0  0  0  0  0  0
   -0.2435  -13.2673   14.4801 C   0  0  0  0  0  0  0  0  0  0  0  0
   -1.6055  -13.3443   15.2002 C   0  0  0  0  0  0  0  0  0  0  0  0
   -2.4203  -14.3936   15.1643 N   0  0  0  0  0  0  0  0  0  0  0  0
   -3.6122  -13.9825   15.6899 C   0  0  0  0  0  0  0  0  0  0  0  0
   -3.5144  -12.6775   16.1042 C   0  0  0  0  0  0  0  0  0  0  0  0
   -2.2126  -12.3145   15.8722 N   0  0  0  0  0  0  0  0  0  0  0  0
    3.1073   -9.9902   14.8589 C   0  0  0  0  0  0  0  0  0  0  0  0
    8.7666   -9.6538   13.8864 H   0  0  0  0  0  0  0  0  0  0  0  0
    7.7022   -8.5009   13.0627 H   0  0  0  0  0  0  0  0  0  0  0  0
    8.3553   -8.1310   14.6714 H   0  0  0  0  0  0  0  0  0  0  0  0
    7.0543   -9.9468   15.6853 H   0  0  0  0  0  0  0  0  0  0  0  0
    5.5428  -11.3511   14.3941 H   0  0  0  0  0  0  0  0  0  0  0  0
    5.8220  -10.4190   12.9148 H   0  0  0  0  0  0  0  0  0  0  0  0
    7.1097  -11.4223   13.6054 H   0  0  0  0  0  0  0  0  0  0  0  0
    4.5485   -9.9031   16.5410 H   0  0  0  0  0  0  0  0  0  0  0  0
    2.9214   -8.6138   17.4638 H   0  0  0  0  0  0  0  0  0  0  0  0
    3.4479   -7.2430   16.4620 H   0  0  0  0  0  0  0  0  0  0  0  0
    1.0651   -8.0958   16.0293 H   0  0  0  0  0  0  0  0  0  0  0  0
    2.0053   -7.9950   14.5775 H   0  0  0  0  0  0  0  0  0  0  0  0
    1.4710  -13.2929   13.1955 H   0  0  0  0  0  0  0  0  0  0  0  0
    2.5744  -12.2996   13.9569 H   0  0  0  0  0  0  0  0  0  0  0  0
    2.0836  -13.6824   14.8886 H   0  0  0  0  0  0  0  0  0  0  0  0
   -0.5112  -13.1811   13.4149 H   0  0  0  0  0  0  0  0  0  0  0  0
    0.1809  -14.2549   14.7312 H   0  0  0  0  0  0  0  0  0  0  0  0
   -4.4726  -14.6375   15.7267 H   0  0  0  0  0  0  0  0  0  0  0  0
   -4.2244  -11.9889   16.5392 H   0  0  0  0  0  0  0  0  0  0  0  0
   -1.8061  -11.4008   16.0276 H   0  0  0  0  0  0  0  0  0  0  0  0
    3.1547   -9.7144   13.7958 H   0  0  0  0  0  0  0  0  0  0  0  0
    3.4262  -11.0266   14.9309 H   0  0  0  0  0  0  0  0  0  0  0  0
  1  2  1  0
  2  3  1  0
  2  4  1  0
  4  5  2  0
  4  6  2  0
  4  7  1  0
  7  8  1  0
  8  9  1  0
  9 10  1  0
 10 11  1  0
 11 12  2  0
 11 13  1  0
 13 14  1  0
 13 15  1  0
 15 16  1  0
 16 17  2  0
 17 18  1  0
 18 19  2  0
 19 20  1  0
 10 21  1  0
 21  7  1  0
 20 16  1  0
  1 22  1  0
  1 23  1  0
  1 24  1  0
  2 25  1  0
  3 26  1  0
  3 27  1  0
  3 28  1  0
  7 29  1  0
  8 30  1  0
  8 31  1  0
  9 32  1  0
  9 33  1  0
 14 34  1  0
 14 35  1  0
 14 36  1  0
 15 37  1  0
 15 38  1  0
 18 39  1  0
 19 40  1  0
 20 41  1  0
 21 42  1  0
 21 43  1  0
M  END
>  <Energy>  (755) 
76.580161259986227

>  <compound_id>  (755) 
18086

>  <target_id>  (755) 
1

>  <reference_id>  (755) 
124

>  <inspiration_ids>  (755) 
[124, 64]

>  <energy_score>  (755) 
92.50140141203434

>  <distance_score>  (755) 
15.97249275006173

>  <path>  (755) 
/opt/xchem-fragalysis-2/maxwin/BulkDock/SCRATCH/511024/C18086-P124/C18086-P124.minimised.mol

>  <scratch_subdir>  (755) 
/opt/xchem-fragalysis-2/maxwin/BulkDock/SCRATCH/511024/C18086-P124

>  <fragmenstein_runtime>  (755) 
31.111074209213257

>  <fragmenstein_outcome>  (755) 
too moved

>  <fragmenstein_mode>  (755) 
expansion

>  <fragmenstein_error>  (755) 


$$$$
C18086-P64
     RDKit          3D

 43 44  0  0  0  0  0  0  0  0999 V2000
    7.9717   -5.2139   21.7629 C   0  0  0  0  0  0  0  0  0  0  0  0
    8.5805   -6.5598   21.4136 C   0  0  0  0  0  0  0  0  0  0  0  0
    9.7167   -6.9806   22.3373 C   0  0  0  0  0  0  0  0  0  0  0  0
    7.3349   -7.8528   21.1222 S   0  0  0  0  0  0  0  0  0  0  0  0
    6.5907   -7.3595   19.9736 O   0  0  0  0  0  0  0  0  0  0  0  0
    8.0587   -9.1041   20.9969 O   0  0  0  0  0  0  0  0  0  0  0  0
    6.1410   -8.0081   22.5074 C   0  0  0  0  0  0  0  0  0  0  0  0
    6.6965   -7.8361   23.8543 C   0  0  0  0  0  0  0  0  0  0  0  0
    7.1340   -9.2616   24.0179 C   0  0  0  0  0  0  0  0  0  0  0  0
    6.1252  -10.3425   23.9747 N   0  0  0  0  0  0  0  0  0  0  0  0
    5.0006  -10.6890   24.9557 C   0  0  0  0  0  0  0  0  0  0  0  0
    4.6341  -10.1104   25.9219 O   0  0  0  0  0  0  0  0  0  0  0  0
    4.5754  -12.0117   24.4088 N   0  0  0  0  0  0  0  0  0  0  0  0
    5.4502  -13.1050   24.9683 C   0  0  0  0  0  0  0  0  0  0  0  0
    3.4157  -13.0114   24.8831 C   0  0  0  0  0  0  0  0  0  0  0  0
    1.8209  -13.0361   24.7099 C   0  0  0  0  0  0  0  0  0  0  0  0
    0.9841  -13.9738   23.7905 N   0  0  0  0  0  0  0  0  0  0  0  0
   -0.5960  -14.3071   24.2211 C   0  0  0  0  0  0  0  0  0  0  0  0
   -1.0336  -13.5474   25.4072 C   0  0  0  0  0  0  0  0  0  0  0  0
    0.7510  -13.2334   25.9718 N   0  0  0  0  0  0  0  0  0  0  0  0
    5.5619   -9.4482   22.7661 C   0  0  0  0  0  0  0  0  0  0  0  0
    7.1409   -4.9724   21.0957 H   0  0  0  0  0  0  0  0  0  0  0  0
    7.5759   -5.2031   22.7822 H   0  0  0  0  0  0  0  0  0  0  0  0
    8.7198   -4.4181   21.6908 H   0  0  0  0  0  0  0  0  0  0  0  0
    9.0406   -6.4358   20.4328 H   0  0  0  0  0  0  0  0  0  0  0  0
    9.4083   -7.1176   23.3730 H   0  0  0  0  0  0  0  0  0  0  0  0
   10.5054   -6.2198   22.3339 H   0  0  0  0  0  0  0  0  0  0  0  0
   10.1696   -7.9198   22.0039 H   0  0  0  0  0  0  0  0  0  0  0  0
    5.3448   -7.2889   22.2888 H   0  0  0  0  0  0  0  0  0  0  0  0
    5.9160   -7.5876   24.5842 H   0  0  0  0  0  0  0  0  0  0  0  0
    7.4923   -7.1091   23.9661 H   0  0  0  0  0  0  0  0  0  0  0  0
    7.5468   -9.3394   25.0337 H   0  0  0  0  0  0  0  0  0  0  0  0
    7.9738   -9.5548   23.3750 H   0  0  0  0  0  0  0  0  0  0  0  0
    5.3995  -13.2261   26.0603 H   0  0  0  0  0  0  0  0  0  0  0  0
    5.4529  -14.0452   24.3995 H   0  0  0  0  0  0  0  0  0  0  0  0
    6.4819  -12.7501   24.8243 H   0  0  0  0  0  0  0  0  0  0  0  0
    3.4819  -13.1104   25.9781 H   0  0  0  0  0  0  0  0  0  0  0  0
    3.6265  -13.9251   24.3110 H   0  0  0  0  0  0  0  0  0  0  0  0
   -1.2004  -14.8640   23.5163 H   0  0  0  0  0  0  0  0  0  0  0  0
   -1.8770  -12.9002   25.5896 H   0  0  0  0  0  0  0  0  0  0  0  0
    0.8444  -12.3877   26.4958 H   0  0  0  0  0  0  0  0  0  0  0  0
    5.6743  -10.0780   21.8742 H   0  0  0  0  0  0  0  0  0  0  0  0
    4.4825   -9.3556   22.9421 H   0  0  0  0  0  0  0  0  0  0  0  0
  1  2  1  0
  2  3  1  0
  2  4  1  0
  4  5  2  0
  4  6  2  0
  4  7  1  0
  7  8  1  0
  8  9  1  0
  9 10  1  0
 10 11  1  0
 11 12  2  0
 11 13  1  0
 13 14  1  0
 13 15  1  0
 15 16  1  0
 16 17  2  0
 17 18  1  0
 18 19  2  0
 19 20  1  0
 10 21  1  0
 21  7  1  0
 20 16  1  0
  1 22  1  0
  1 23  1  0
  1 24  1  0
  2 25  1  0
  3 26  1  0
  3 27  1  0
  3 28  1  0
  7 29  1  0
  8 30  1  0
  8 31  1  0
  9 32  1  0
  9 33  1  0
 14 34  1  0
 14 35  1  0
 14 36  1  0
 15 37  1  0
 15 38  1  0
 18 39  1  0
 19 40  1  0
 20 41  1  0
 21 42  1  0
 21 43  1  0
M  END
>  <Energy>  (756) 
285.15101416333511

>  <compound_id>  (756) 
18086

>  <target_id>  (756) 
1

>  <reference_id>  (756) 
64

>  <inspiration_ids>  (756) 
[124, 64]

>  <energy_score>  (756) 
301.07225431537677

>  <distance_score>  (756) 
14.40713949137671

>  <path>  (756) 
/opt/xchem-fragalysis-2/maxwin/BulkDock/SCRATCH/511024/C18086-P64/C18086-P64.minimised.mol

>  <scratch_subdir>  (756) 
/opt/xchem-fragalysis-2/maxwin/BulkDock/SCRATCH/511024/C18086-P64

>  <fragmenstein_runtime>  (756) 
22.115103006362915

>  <fragmenstein_outcome>  (756) 
too moved

>  <fragmenstein_mode>  (756) 
expansion

>  <fragmenstein_error>  (756) 


$$$$
C14599-P124
     RDKit          3D

 39 41  0  0  0  0  0  0  0  0999 V2000
    2.2316  -14.6517   17.3476 O   0  0  0  0  0  0  0  0  0  0  0  0
    3.2982  -15.0684   17.7344 C   0  0  0  0  0  0  0  0  0  0  0  0
    3.2728  -16.3868   18.6447 C   0  0  0  0  0  0  0  0  0  0  0  0
    2.0943  -16.6482   19.4352 O   0  0  0  0  0  0  0  0  0  0  0  0
    1.1921  -17.7202   19.0611 C   0  0  0  0  0  0  0  0  0  0  0  0
   -0.2153  -17.4775   19.6326 C   0  0  0  0  0  0  0  0  0  0  0  0
   -0.7892  -18.8612   19.8782 C   0  0  0  0  0  0  0  0  0  0  0  0
    0.3451  -19.6203   20.4072 N   0  0  0  0  0  0  0  0  0  0  0  0
    1.5282  -19.1032   19.6728 C   0  0  0  0  0  0  0  0  0  0  0  0
    4.6562  -14.6210   17.4297 N   0  0  0  0  0  0  0  0  0  0  0  0
    5.1513  -13.5831   16.4621 C   0  0  0  0  0  0  0  0  0  0  0  0
    6.5824  -13.1367   16.6988 C   0  0  0  0  0  0  0  0  0  0  0  0
    6.5535  -13.0143   18.1858 C   0  0  0  0  0  0  0  0  0  0  0  0
    6.8255  -11.6133   18.6692 C   0  0  0  0  0  0  0  0  0  0  0  0
    5.9876  -10.5953   18.7097 N   0  0  0  0  0  0  0  0  0  0  0  0
    6.6431   -9.5880   19.3731 C   0  0  0  0  0  0  0  0  0  0  0  0
    7.9275   -9.9669   19.6727 C   0  0  0  0  0  0  0  0  0  0  0  0
    8.0559  -11.2277   19.1604 N   0  0  0  0  0  0  0  0  0  0  0  0
    5.1173  -13.5512   18.4504 C   0  0  0  0  0  0  0  0  0  0  0  0
    3.4789  -17.2413   17.9902 H   0  0  0  0  0  0  0  0  0  0  0  0
    4.1027  -16.3020   19.3540 H   0  0  0  0  0  0  0  0  0  0  0  0
    1.1346  -17.7832   17.9676 H   0  0  0  0  0  0  0  0  0  0  0  0
   -0.1468  -16.9204   20.5688 H   0  0  0  0  0  0  0  0  0  0  0  0
   -0.8315  -16.8904   18.9444 H   0  0  0  0  0  0  0  0  0  0  0  0
   -1.6300  -18.8491   20.5750 H   0  0  0  0  0  0  0  0  0  0  0  0
   -1.1300  -19.3126   18.9396 H   0  0  0  0  0  0  0  0  0  0  0  0
    0.4900  -19.3606   21.3921 H   0  0  0  0  0  0  0  0  0  0  0  0
    1.7657  -19.8055   18.8657 H   0  0  0  0  0  0  0  0  0  0  0  0
    2.4018  -19.0588   20.3310 H   0  0  0  0  0  0  0  0  0  0  0  0
    5.0916  -14.0664   15.4779 H   0  0  0  0  0  0  0  0  0  0  0  0
    4.4350  -12.7474   16.3854 H   0  0  0  0  0  0  0  0  0  0  0  0
    7.2823  -13.9208   16.3880 H   0  0  0  0  0  0  0  0  0  0  0  0
    6.8219  -12.2202   16.1510 H   0  0  0  0  0  0  0  0  0  0  0  0
    7.2821  -13.7043   18.6303 H   0  0  0  0  0  0  0  0  0  0  0  0
    6.1553   -8.6472   19.5968 H   0  0  0  0  0  0  0  0  0  0  0  0
    8.7365   -9.4604   20.1794 H   0  0  0  0  0  0  0  0  0  0  0  0
    8.8799  -11.8116   19.2107 H   0  0  0  0  0  0  0  0  0  0  0  0
    5.0863  -14.0307   19.4381 H   0  0  0  0  0  0  0  0  0  0  0  0
    4.3716  -12.7445   18.5048 H   0  0  0  0  0  0  0  0  0  0  0  0
  1  2  2  0
  2  3  1  0
  3  4  1  0
  4  5  1  0
  5  6  1  0
  6  7  1  0
  7  8  1  0
  8  9  1  0
  2 10  1  0
 10 11  1  0
 11 12  1  0
 12 13  1  0
 13 14  1  0
 14 15  2  0
 15 16  1  0
 16 17  2  0
 17 18  1  0
 13 19  1  0
  9  5  1  0
 19 10  1  0
 18 14  1  0
  3 20  1  0
  3 21  1  0
  5 22  1  0
  6 23  1  0
  6 24  1  0
  7 25  1  0
  7 26  1  0
  8 27  1  0
  9 28  1  0
  9 29  1  0
 11 30  1  0
 11 31  1  0
 12 32  1  0
 12 33  1  0
 13 34  1  0
 16 35  1  0
 17 36  1  0
 18 37  1  0
 19 38  1  0
 19 39  1  0
M  END
>  <Energy>  (757) 
124.66958550066366

>  <compound_id>  (757) 
14599

>  <target_id>  (757) 
1

>  <reference_id>  (757) 
124

>  <inspiration_ids>  (757) 
[124, 64]

>  <energy_score>  (757) 
40.11786504570529

>  <distance_score>  (757) 
15.302315581290296

>  <path>  (757) 
/opt/xchem-fragalysis-2/maxwin/BulkDock/SCRATCH/511024/C14599-P124/C14599-P124.minimised.mol

>  <scratch_subdir>  (757) 
/opt/xchem-fragalysis-2/maxwin/BulkDock/SCRATCH/511024/C14599-P124

>  <fragmenstein_runtime>  (757) 
26.456236839294434

>  <fragmenstein_outcome>  (757) 
too moved

>  <fragmenstein_mode>  (757) 
expansion

>  <fragmenstein_error>  (757) 


$$$$
C14599-P64
     RDKit          3D

 39 41  0  0  0  0  0  0  0  0999 V2000
    8.7968  -10.6962   17.4921 O   0  0  0  0  0  0  0  0  0  0  0  0
    8.8509  -10.4672   16.2976 C   0  0  0  0  0  0  0  0  0  0  0  0
    7.5711  -11.0534   15.5032 C   0  0  0  0  0  0  0  0  0  0  0  0
    6.9444  -12.2938   16.0312 O   0  0  0  0  0  0  0  0  0  0  0  0
    5.7423  -12.2415   16.8753 C   0  0  0  0  0  0  0  0  0  0  0  0
    5.8264  -13.2145   18.0850 C   0  0  0  0  0  0  0  0  0  0  0  0
    4.6539  -14.1991   17.9875 C   0  0  0  0  0  0  0  0  0  0  0  0
    3.6543  -13.5006   17.1830 N   0  0  0  0  0  0  0  0  0  0  0  0
    4.4669  -12.7859   16.1729 C   0  0  0  0  0  0  0  0  0  0  0  0
    9.9586   -9.8255   15.4617 N   0  0  0  0  0  0  0  0  0  0  0  0
   11.5471   -9.3399   15.9094 C   0  0  0  0  0  0  0  0  0  0  0  0
   12.1886   -7.4313   16.0363 C   0  0  0  0  0  0  0  0  0  0  0  0
   11.0753   -6.6005   15.6905 C   0  0  0  0  0  0  0  0  0  0  0  0
   11.3478   -4.7966   15.8385 C   0  0  0  0  0  0  0  0  0  0  0  0
   10.8705   -3.8511   15.0445 N   0  0  0  0  0  0  0  0  0  0  0  0
   11.5500   -2.7062   15.3628 C   0  0  0  0  0  0  0  0  0  0  0  0
   12.4614   -2.9472   16.3615 C   0  0  0  0  0  0  0  0  0  0  0  0
   12.3396   -4.2799   16.6521 N   0  0  0  0  0  0  0  0  0  0  0  0
    9.6894   -7.9801   15.3539 C   0  0  0  0  0  0  0  0  0  0  0  0
    7.9190  -11.3062   14.4964 H   0  0  0  0  0  0  0  0  0  0  0  0
    6.8042  -10.2782   15.4223 H   0  0  0  0  0  0  0  0  0  0  0  0
    5.5966  -11.2172   17.2373 H   0  0  0  0  0  0  0  0  0  0  0  0
    5.7304  -12.6300   19.0085 H   0  0  0  0  0  0  0  0  0  0  0  0
    6.7857  -13.7410   18.1203 H   0  0  0  0  0  0  0  0  0  0  0  0
    4.2669  -14.4750   18.9725 H   0  0  0  0  0  0  0  0  0  0  0  0
    4.9771  -15.1136   17.4760 H   0  0  0  0  0  0  0  0  0  0  0  0
    3.0550  -14.1795   16.7127 H   0  0  0  0  0  0  0  0  0  0  0  0
    3.8917  -11.9675   15.7288 H   0  0  0  0  0  0  0  0  0  0  0  0
    4.7474  -13.4681   15.3606 H   0  0  0  0  0  0  0  0  0  0  0  0
   11.5381   -9.9098   16.8479 H   0  0  0  0  0  0  0  0  0  0  0  0
   12.2400   -9.9894   15.3441 H   0  0  0  0  0  0  0  0  0  0  0  0
   12.5865   -6.9905   16.9260 H   0  0  0  0  0  0  0  0  0  0  0  0
   13.0577   -7.1534   15.4990 H   0  0  0  0  0  0  0  0  0  0  0  0
   10.9104   -6.3620   16.6885 H   0  0  0  0  0  0  0  0  0  0  0  0
   11.3521   -1.7797   14.8379 H   0  0  0  0  0  0  0  0  0  0  0  0
   13.1866   -2.3184   16.8561 H   0  0  0  0  0  0  0  0  0  0  0  0
   12.9187   -4.8135   17.2857 H   0  0  0  0  0  0  0  0  0  0  0  0
    9.2667   -8.2688   14.4383 H   0  0  0  0  0  0  0  0  0  0  0  0
    8.7906   -7.4107   15.0811 H   0  0  0  0  0  0  0  0  0  0  0  0
  1  2  2  0
  2  3  1  0
  3  4  1  0
  4  5  1  0
  5  6  1  0
  6  7  1  0
  7  8  1  0
  8  9  1  0
  2 10  1  0
 10 11  1  0
 11 12  1  0
 12 13  1  0
 13 14  1  0
 14 15  2  0
 15 16  1  0
 16 17  2  0
 17 18  1  0
 13 19  1  0
  9  5  1  0
 19 10  1  0
 18 14  1  0
  3 20  1  0
  3 21  1  0
  5 22  1  0
  6 23  1  0
  6 24  1  0
  7 25  1  0
  7 26  1  0
  8 27  1  0
  9 28  1  0
  9 29  1  0
 11 30  1  0
 11 31  1  0
 12 32  1  0
 12 33  1  0
 13 34  1  0
 16 35  1  0
 17 36  1  0
 18 37  1  0
 19 38  1  0
 19 39  1  0
M  END
>  <Energy>  (758) 
451.65627476833856

>  <compound_id>  (758) 
14599

>  <target_id>  (758) 
1

>  <reference_id>  (758) 
64

>  <inspiration_ids>  (758) 
[124, 64]

>  <energy_score>  (758) 
367.104554313378

>  <distance_score>  (758) 
14.099722420699196

>  <path>  (758) 
/opt/xchem-fragalysis-2/maxwin/BulkDock/SCRATCH/511024/C14599-P64/C14599-P64.minimised.mol

>  <scratch_subdir>  (758) 
/opt/xchem-fragalysis-2/maxwin/BulkDock/SCRATCH/511024/C14599-P64

>  <fragmenstein_runtime>  (758) 
23.333656787872314

>  <fragmenstein_outcome>  (758) 
too moved

>  <fragmenstein_mode>  (758) 
expansion

>  <fragmenstein_error>  (758) 


$$$$
C14616-P124
     RDKit          3D

 39 41  0  0  0  0  0  0  0  0999 V2000
    4.2029  -12.4971   21.1147 O   0  0  0  0  0  0  0  0  0  0  0  0
    3.9837  -11.7271   22.0619 C   0  0  0  0  0  0  0  0  0  0  0  0
    2.6731  -12.4700   23.2989 C   0  0  0  0  0  0  0  0  0  0  0  0
    1.5353  -13.6918   23.6867 O   0  0  0  0  0  0  0  0  0  0  0  0
   -0.2018  -13.9620   23.1475 C   0  0  0  0  0  0  0  0  0  0  0  0
   -1.0989  -14.9298   22.4676 C   0  0  0  0  0  0  0  0  0  0  0  0
   -2.7478  -15.2919   23.5388 C   0  0  0  0  0  0  0  0  0  0  0  0
   -2.1281  -15.3131   24.7488 N   0  0  0  0  0  0  0  0  0  0  0  0
   -0.9223  -14.4407   24.4193 C   0  0  0  0  0  0  0  0  0  0  0  0
    4.7066  -10.3651   22.3978 N   0  0  0  0  0  0  0  0  0  0  0  0
    3.9773   -9.1657   21.7180 C   0  0  0  0  0  0  0  0  0  0  0  0
    4.6391   -7.8221   22.0329 C   0  0  0  0  0  0  0  0  0  0  0  0
    6.0274   -8.2725   22.3261 C   0  0  0  0  0  0  0  0  0  0  0  0
    5.9350   -9.6735   21.7405 C   0  0  0  0  0  0  0  0  0  0  0  0
    6.3334   -9.7152   20.2689 C   0  0  0  0  0  0  0  0  0  0  0  0
    6.9152   -8.7323   19.5847 N   0  0  0  0  0  0  0  0  0  0  0  0
    7.2690   -9.2659   18.3734 C   0  0  0  0  0  0  0  0  0  0  0  0
    6.9129  -10.5872   18.3135 C   0  0  0  0  0  0  0  0  0  0  0  0
    6.3138  -10.8616   19.5147 N   0  0  0  0  0  0  0  0  0  0  0  0
    2.1889  -11.7267   23.8413 H   0  0  0  0  0  0  0  0  0  0  0  0
    3.3800  -12.9606   23.9520 H   0  0  0  0  0  0  0  0  0  0  0  0
    0.3314  -14.5053   22.4150 H   0  0  0  0  0  0  0  0  0  0  0  0
   -0.4635  -15.7987   21.9455 H   0  0  0  0  0  0  0  0  0  0  0  0
   -1.6646  -14.7226   21.4638 H   0  0  0  0  0  0  0  0  0  0  0  0
   -3.5144  -15.9307   23.1306 H   0  0  0  0  0  0  0  0  0  0  0  0
   -3.6154  -14.6841   23.5119 H   0  0  0  0  0  0  0  0  0  0  0  0
   -2.0235  -16.3084   24.7806 H   0  0  0  0  0  0  0  0  0  0  0  0
    0.1058  -14.5915   24.6346 H   0  0  0  0  0  0  0  0  0  0  0  0
   -1.2629  -13.6594   25.1114 H   0  0  0  0  0  0  0  0  0  0  0  0
    2.9463   -9.0918   22.0174 H   0  0  0  0  0  0  0  0  0  0  0  0
    3.9330   -9.2819   20.6254 H   0  0  0  0  0  0  0  0  0  0  0  0
    4.1942   -7.2900   22.8765 H   0  0  0  0  0  0  0  0  0  0  0  0
    4.5855   -7.1571   21.1638 H   0  0  0  0  0  0  0  0  0  0  0  0
    6.7949   -7.6258   21.8922 H   0  0  0  0  0  0  0  0  0  0  0  0
    6.1909   -8.3171   23.4098 H   0  0  0  0  0  0  0  0  0  0  0  0
    6.7556  -10.2429   22.2059 H   0  0  0  0  0  0  0  0  0  0  0  0
    7.7500   -8.6857   17.6017 H   0  0  0  0  0  0  0  0  0  0  0  0
    7.0177  -11.3389   17.5441 H   0  0  0  0  0  0  0  0  0  0  0  0
    5.9272  -11.7524   19.8137 H   0  0  0  0  0  0  0  0  0  0  0  0
  1  2  2  0
  2  3  1  0
  3  4  1  0
  4  5  1  0
  5  6  1  0
  6  7  1  0
  7  8  1  0
  8  9  1  0
  2 10  1  0
 10 11  1  0
 11 12  1  0
 12 13  1  0
 13 14  1  0
 14 15  1  0
 15 16  2  0
 16 17  1  0
 17 18  2  0
 18 19  1  0
  9  5  1  0
 14 10  1  0
 19 15  1  0
  3 20  1  0
  3 21  1  0
  5 22  1  0
  6 23  1  0
  6 24  1  0
  7 25  1  0
  7 26  1  0
  8 27  1  0
  9 28  1  0
  9 29  1  0
 11 30  1  0
 11 31  1  0
 12 32  1  0
 12 33  1  0
 13 34  1  0
 13 35  1  0
 14 36  1  0
 17 37  1  0
 18 38  1  0
 19 39  1  0
M  END
>  <Energy>  (759) 
527.09309717485223

>  <compound_id>  (759) 
14616

>  <target_id>  (759) 
1

>  <reference_id>  (759) 
124

>  <inspiration_ids>  (759) 
[124, 64]

>  <energy_score>  (759) 
431.67708744792617

>  <distance_score>  (759) 
14.668570374463783

>  <path>  (759) 
/opt/xchem-fragalysis-2/maxwin/BulkDock/SCRATCH/511024/C14616-P124/C14616-P124.minimised.mol

>  <scratch_subdir>  (759) 
/opt/xchem-fragalysis-2/maxwin/BulkDock/SCRATCH/511024/C14616-P124

>  <fragmenstein_runtime>  (759) 
17.03220772743225

>  <fragmenstein_outcome>  (759) 
too moved

>  <fragmenstein_mode>  (759) 
expansion

>  <fragmenstein_error>  (759) 


$$$$
C14616-P64
     RDKit          3D

 39 41  0  0  0  0  0  0  0  0999 V2000
    3.9743  -12.5120   21.4424 O   0  0  0  0  0  0  0  0  0  0  0  0
    3.8932  -11.6891   22.3598 C   0  0  0  0  0  0  0  0  0  0  0  0
    2.6613  -12.2945   23.7941 C   0  0  0  0  0  0  0  0  0  0  0  0
    1.7914  -13.1331   24.8664 O   0  0  0  0  0  0  0  0  0  0  0  0
    1.2374  -13.4908   26.5163 C   0  0  0  0  0  0  0  0  0  0  0  0
    2.7163  -14.3214   27.4945 C   0  0  0  0  0  0  0  0  0  0  0  0
    2.0511  -15.9145   28.2260 C   0  0  0  0  0  0  0  0  0  0  0  0
    0.4317  -15.8271   28.7435 N   0  0  0  0  0  0  0  0  0  0  0  0
   -0.2723  -14.5444   27.5223 C   0  0  0  0  0  0  0  0  0  0  0  0
    4.7454  -10.3264   22.5353 N   0  0  0  0  0  0  0  0  0  0  0  0
    4.0201   -9.1266   21.8637 C   0  0  0  0  0  0  0  0  0  0  0  0
    4.7859   -7.8229   22.1230 C   0  0  0  0  0  0  0  0  0  0  0  0
    6.1704   -8.3574   22.2890 C   0  0  0  0  0  0  0  0  0  0  0  0
    5.9365   -9.7507   21.7084 C   0  0  0  0  0  0  0  0  0  0  0  0
    6.1960   -9.7578   20.2068 C   0  0  0  0  0  0  0  0  0  0  0  0
    6.6430   -8.7245   19.4948 N   0  0  0  0  0  0  0  0  0  0  0  0
    6.9963   -9.2181   18.2678 C   0  0  0  0  0  0  0  0  0  0  0  0
    6.7744  -10.5694   18.2235 C   0  0  0  0  0  0  0  0  0  0  0  0
    6.2525  -10.8998   19.4487 N   0  0  0  0  0  0  0  0  0  0  0  0
    1.8065  -11.8815   23.3179 H   0  0  0  0  0  0  0  0  0  0  0  0
    2.9820  -13.2860   23.4795 H   0  0  0  0  0  0  0  0  0  0  0  0
    1.0819  -12.4423   26.7654 H   0  0  0  0  0  0  0  0  0  0  0  0
    3.6160  -14.5221   26.8750 H   0  0  0  0  0  0  0  0  0  0  0  0
    3.1752  -13.6800   28.2432 H   0  0  0  0  0  0  0  0  0  0  0  0
    2.0893  -16.7696   27.5438 H   0  0  0  0  0  0  0  0  0  0  0  0
    2.7095  -16.2090   29.0552 H   0  0  0  0  0  0  0  0  0  0  0  0
   -0.0135  -16.7351   28.5757 H   0  0  0  0  0  0  0  0  0  0  0  0
   -1.3337  -15.0065   27.4149 H   0  0  0  0  0  0  0  0  0  0  0  0
    0.8281  -14.8549   26.8550 H   0  0  0  0  0  0  0  0  0  0  0  0
    3.8909   -9.2651   20.7825 H   0  0  0  0  0  0  0  0  0  0  0  0
    3.0190   -8.9703   22.2165 H   0  0  0  0  0  0  0  0  0  0  0  0
    4.6900   -7.1436   21.2693 H   0  0  0  0  0  0  0  0  0  0  0  0
    4.4543   -7.2850   23.0149 H   0  0  0  0  0  0  0  0  0  0  0  0
    6.4273   -8.4209   23.3537 H   0  0  0  0  0  0  0  0  0  0  0  0
    6.9340   -7.7518   21.7934 H   0  0  0  0  0  0  0  0  0  0  0  0
    6.7620  -10.3750   22.0852 H   0  0  0  0  0  0  0  0  0  0  0  0
    7.3808   -8.5840   17.4820 H   0  0  0  0  0  0  0  0  0  0  0  0
    6.9220  -11.3092   17.4499 H   0  0  0  0  0  0  0  0  0  0  0  0
    5.9812  -11.8253   19.7624 H   0  0  0  0  0  0  0  0  0  0  0  0
  1  2  2  0
  2  3  1  0
  3  4  1  0
  4  5  1  0
  5  6  1  0
  6  7  1  0
  7  8  1  0
  8  9  1  0
  2 10  1  0
 10 11  1  0
 11 12  1  0
 12 13  1  0
 13 14  1  0
 14 15  1  0
 15 16  2  0
 16 17  1  0
 17 18  2  0
 18 19  1  0
  9  5  1  0
 14 10  1  0
 19 15  1  0
  3 20  1  0
  3 21  1  0
  5 22  1  0
  6 23  1  0
  6 24  1  0
  7 25  1  0
  7 26  1  0
  8 27  1  0
  9 28  1  0
  9 29  1  0
 11 30  1  0
 11 31  1  0
 12 32  1  0
 12 33  1  0
 13 34  1  0
 13 35  1  0
 14 36  1  0
 17 37  1  0
 18 38  1  0
 19 39  1  0
M  END
>  <Energy>  (760) 
663.3246744665114

>  <compound_id>  (760) 
14616

>  <target_id>  (760) 
1

>  <reference_id>  (760) 
64

>  <inspiration_ids>  (760) 
[124, 64]

>  <energy_score>  (760) 
567.9086647395822

>  <distance_score>  (760) 
15.003876851386682

>  <path>  (760) 
/opt/xchem-fragalysis-2/maxwin/BulkDock/SCRATCH/511024/C14616-P64/C14616-P64.minimised.mol

>  <scratch_subdir>  (760) 
/opt/xchem-fragalysis-2/maxwin/BulkDock/SCRATCH/511024/C14616-P64

>  <fragmenstein_runtime>  (760) 
19.023657083511353

>  <fragmenstein_outcome>  (760) 
too moved

>  <fragmenstein_mode>  (760) 
expansion

>  <fragmenstein_error>  (760) 


$$$$
C58644-P53
     RDKit          3D

 37 37  0  0  0  0  0  0  0  0999 V2000
   -7.1113  -13.5787   27.1507 C   0  0  0  0  0  0  0  0  0  0  0  0
   -7.3614  -14.5231   28.2502 C   0  0  0  0  0  0  0  0  0  0  0  0
   -8.8320  -14.7855   28.0125 C   0  0  0  0  0  0  0  0  0  0  0  0
   -9.3206  -15.7340   29.0234 C   0  0  0  0  0  0  0  0  0  0  0  0
   -9.9185  -17.1589   28.2089 S   0  0  0  0  0  0  0  0  0  0  0  0
   -8.8478  -18.0830   28.3980 O   0  0  0  0  0  0  0  0  0  0  0  0
  -10.2156  -16.6655   26.8945 O   0  0  0  0  0  0  0  0  0  0  0  0
  -11.6191  -17.7927   29.1644 N   0  0  0  0  0  0  0  0  0  0  0  0
  -12.2385  -16.3659   29.4686 C   0  0  0  0  0  0  0  0  0  0  0  0
  -12.4968  -19.6041   29.2320 C   0  0  0  0  0  0  0  0  0  0  0  0
  -12.2051  -21.1003   28.5627 C   0  0  0  0  0  0  0  0  0  0  0  0
  -12.1080  -21.6670   27.1304 C   0  0  0  0  0  0  0  0  0  0  0  0
  -11.4233  -22.9921   27.2810 C   0  0  0  0  0  0  0  0  0  0  0  0
  -10.4624  -22.7029   28.3065 N   0  0  0  0  0  0  0  0  0  0  0  0
  -11.0838  -21.7990   29.2436 C   0  0  0  0  0  0  0  0  0  0  0  0
   -8.0092  -13.0210   27.0775 H   0  0  0  0  0  0  0  0  0  0  0  0
   -6.3684  -12.8273   27.2723 H   0  0  0  0  0  0  0  0  0  0  0  0
   -7.0812  -14.1345   26.2219 H   0  0  0  0  0  0  0  0  0  0  0  0
   -6.8503  -15.4812   28.1584 H   0  0  0  0  0  0  0  0  0  0  0  0
   -7.1019  -14.1886   29.2485 H   0  0  0  0  0  0  0  0  0  0  0  0
   -8.8936  -15.1182   26.9729 H   0  0  0  0  0  0  0  0  0  0  0  0
   -9.4912  -13.9280   28.0279 H   0  0  0  0  0  0  0  0  0  0  0  0
   -8.4072  -16.0263   29.5547 H   0  0  0  0  0  0  0  0  0  0  0  0
   -9.9986  -15.2428   29.7134 H   0  0  0  0  0  0  0  0  0  0  0  0
  -12.2195  -16.0938   30.5217 H   0  0  0  0  0  0  0  0  0  0  0  0
  -13.1776  -16.0574   29.0097 H   0  0  0  0  0  0  0  0  0  0  0  0
  -11.6533  -15.5863   28.9872 H   0  0  0  0  0  0  0  0  0  0  0  0
  -12.3138  -20.1591   30.1778 H   0  0  0  0  0  0  0  0  0  0  0  0
  -13.5219  -19.4373   29.5269 H   0  0  0  0  0  0  0  0  0  0  0  0
  -13.0207  -21.6204   29.0344 H   0  0  0  0  0  0  0  0  0  0  0  0
  -13.0074  -21.9051   26.5899 H   0  0  0  0  0  0  0  0  0  0  0  0
  -11.5852  -21.0462   26.4432 H   0  0  0  0  0  0  0  0  0  0  0  0
  -10.9876  -23.4090   26.3744 H   0  0  0  0  0  0  0  0  0  0  0  0
  -12.1339  -23.7444   27.5656 H   0  0  0  0  0  0  0  0  0  0  0  0
  -10.1237  -23.5806   28.6729 H   0  0  0  0  0  0  0  0  0  0  0  0
  -11.3959  -22.3007   30.1385 H   0  0  0  0  0  0  0  0  0  0  0  0
  -10.4854  -21.0154   29.6430 H   0  0  0  0  0  0  0  0  0  0  0  0
  1  2  1  0
  2  3  1  0
  3  4  1  0
  4  5  1  0
  5  6  2  0
  5  7  2  0
  5  8  1  0
  8  9  1  0
  8 10  1  0
 10 11  1  0
 11 12  1  0
 12 13  1  0
 13 14  1  0
 14 15  1  0
 15 11  1  0
  1 16  1  0
  1 17  1  0
  1 18  1  0
  2 19  1  0
  2 20  1  0
  3 21  1  0
  3 22  1  0
  4 23  1  0
  4 24  1  0
  9 25  1  0
  9 26  1  0
  9 27  1  0
 10 28  1  0
 10 29  1  0
 11 30  1  0
 12 31  1  0
 12 32  1  0
 13 33  1  0
 13 34  1  0
 14 35  1  0
 15 36  1  0
 15 37  1  0
M  END
>  <Energy>  (761) 
208.69131815643607

>  <compound_id>  (761) 
58644

>  <target_id>  (761) 
1

>  <reference_id>  (761) 
53

>  <inspiration_ids>  (761) 
[53, 123]

>  <energy_score>  (761) 
218.84528385346914

>  <distance_score>  (761) 
12.594173291212286

>  <path>  (761) 
/opt/xchem-fragalysis-2/maxwin/BulkDock/SCRATCH/511024/C58644-P53/C58644-P53.minimised.mol

>  <scratch_subdir>  (761) 
/opt/xchem-fragalysis-2/maxwin/BulkDock/SCRATCH/511024/C58644-P53

>  <fragmenstein_runtime>  (761) 
18.86789321899414

>  <fragmenstein_outcome>  (761) 
too moved

>  <fragmenstein_mode>  (761) 
expansion

>  <fragmenstein_error>  (761) 


$$$$
C58644-P123
     RDKit          3D

 37 37  0  0  0  0  0  0  0  0999 V2000
   -1.3959  -17.0127   30.7221 C   0  0  0  0  0  0  0  0  0  0  0  0
   -1.5858  -18.5580   30.8280 C   0  0  0  0  0  0  0  0  0  0  0  0
   -3.0255  -18.9835   31.2689 C   0  0  0  0  0  0  0  0  0  0  0  0
   -3.6708  -20.5191   31.3565 C   0  0  0  0  0  0  0  0  0  0  0  0
   -5.4730  -20.1848   31.9419 S   0  0  0  0  0  0  0  0  0  0  0  0
   -5.6366  -18.8725   31.3034 O   0  0  0  0  0  0  0  0  0  0  0  0
   -5.4793  -20.1782   33.3750 O   0  0  0  0  0  0  0  0  0  0  0  0
   -7.0375  -21.6560   31.2507 N   0  0  0  0  0  0  0  0  0  0  0  0
   -7.3114  -22.2149   28.9142 C   0  0  0  0  0  0  0  0  0  0  0  0
   -7.8516  -22.9165   32.6772 C   0  0  0  0  0  0  0  0  0  0  0  0
   -9.3706  -23.7953   32.2530 C   0  0  0  0  0  0  0  0  0  0  0  0
   -9.7486  -25.0007   33.0649 C   0  0  0  0  0  0  0  0  0  0  0  0
  -11.2489  -24.9294   33.2521 C   0  0  0  0  0  0  0  0  0  0  0  0
  -11.6705  -23.5691   32.9672 N   0  0  0  0  0  0  0  0  0  0  0  0
  -10.7149  -23.0644   32.0011 C   0  0  0  0  0  0  0  0  0  0  0  0
   -2.0942  -16.5905   29.9934 H   0  0  0  0  0  0  0  0  0  0  0  0
   -0.3750  -16.7837   30.4030 H   0  0  0  0  0  0  0  0  0  0  0  0
   -1.5721  -16.5453   31.6951 H   0  0  0  0  0  0  0  0  0  0  0  0
   -1.3712  -19.0079   29.8523 H   0  0  0  0  0  0  0  0  0  0  0  0
   -0.8626  -18.9624   31.5444 H   0  0  0  0  0  0  0  0  0  0  0  0
   -3.6469  -18.4342   30.5535 H   0  0  0  0  0  0  0  0  0  0  0  0
   -3.1983  -18.5279   32.2537 H   0  0  0  0  0  0  0  0  0  0  0  0
   -3.1773  -21.1053   32.1342 H   0  0  0  0  0  0  0  0  0  0  0  0
   -3.6217  -21.0059   30.3874 H   0  0  0  0  0  0  0  0  0  0  0  0
   -6.4642  -22.7732   28.3267 H   0  0  0  0  0  0  0  0  0  0  0  0
   -7.2829  -21.4110   28.0557 H   0  0  0  0  0  0  0  0  0  0  0  0
   -8.3187  -22.6908   28.5564 H   0  0  0  0  0  0  0  0  0  0  0  0
   -7.9999  -22.2635   33.5196 H   0  0  0  0  0  0  0  0  0  0  0  0
   -7.2707  -23.7882   32.5779 H   0  0  0  0  0  0  0  0  0  0  0  0
   -9.1220  -24.3016   31.3074 H   0  0  0  0  0  0  0  0  0  0  0  0
   -9.5337  -25.8685   32.4394 H   0  0  0  0  0  0  0  0  0  0  0  0
   -9.1954  -25.1147   33.9914 H   0  0  0  0  0  0  0  0  0  0  0  0
  -11.7376  -25.6033   32.5421 H   0  0  0  0  0  0  0  0  0  0  0  0
  -11.5221  -25.2070   34.2705 H   0  0  0  0  0  0  0  0  0  0  0  0
  -11.6794  -23.0271   33.8285 H   0  0  0  0  0  0  0  0  0  0  0  0
  -11.0978  -23.3490   31.0116 H   0  0  0  0  0  0  0  0  0  0  0  0
  -10.6677  -21.9723   31.9868 H   0  0  0  0  0  0  0  0  0  0  0  0
  1  2  1  0
  2  3  1  0
  3  4  1  0
  4  5  1  0
  5  6  2  0
  5  7  2  0
  5  8  1  0
  8  9  1  0
  8 10  1  0
 10 11  1  0
 11 12  1  0
 12 13  1  0
 13 14  1  0
 14 15  1  0
 15 11  1  0
  1 16  1  0
  1 17  1  0
  1 18  1  0
  2 19  1  0
  2 20  1  0
  3 21  1  0
  3 22  1  0
  4 23  1  0
  4 24  1  0
  9 25  1  0
  9 26  1  0
  9 27  1  0
 10 28  1  0
 10 29  1  0
 11 30  1  0
 12 31  1  0
 12 32  1  0
 13 33  1  0
 13 34  1  0
 14 35  1  0
 15 36  1  0
 15 37  1  0
M  END
>  <Energy>  (762) 
539.54677441412093

>  <compound_id>  (762) 
58644

>  <target_id>  (762) 
1

>  <reference_id>  (762) 
123

>  <inspiration_ids>  (762) 
[53, 123]

>  <energy_score>  (762) 
549.7007401111534

>  <distance_score>  (762) 
12.841886395759989

>  <path>  (762) 
/opt/xchem-fragalysis-2/maxwin/BulkDock/SCRATCH/511024/C58644-P123/C58644-P123.minimised.mol

>  <scratch_subdir>  (762) 
/opt/xchem-fragalysis-2/maxwin/BulkDock/SCRATCH/511024/C58644-P123

>  <fragmenstein_runtime>  (762) 
11.277011394500732

>  <fragmenstein_outcome>  (762) 
too moved

>  <fragmenstein_mode>  (762) 
expansion

>  <fragmenstein_error>  (762) 


$$$$
C58645-P53
     RDKit          3D

 24 24  0  0  0  0  0  0  0  0999 V2000
  -11.0333   -8.3199   32.3898 O   0  0  0  0  0  0  0  0  0  0  0  0
  -10.2342   -9.1123   33.3095 S   0  0  0  0  0  0  0  0  0  0  0  0
  -11.2336   -9.5598   34.2826 O   0  0  0  0  0  0  0  0  0  0  0  0
   -9.2034  -10.6596   32.3399 O   0  0  0  0  0  0  0  0  0  0  0  0
   -8.2552  -12.0367   33.0865 C   0  0  0  0  0  0  0  0  0  0  0  0
   -8.6563  -13.5482   33.6332 C   0  0  0  0  0  0  0  0  0  0  0  0
   -9.5961  -14.6447   33.1235 C   0  0  0  0  0  0  0  0  0  0  0  0
   -9.3010  -15.7401   34.1611 C   0  0  0  0  0  0  0  0  0  0  0  0
   -7.7967  -15.6739   34.3280 C   0  0  0  0  0  0  0  0  0  0  0  0
   -7.4391  -14.4066   33.6866 N   0  0  0  0  0  0  0  0  0  0  0  0
   -9.2994   -7.5868   33.5379 C   0  0  0  0  0  0  0  0  0  0  0  0
  -10.1659   -6.8514   34.2914 F   0  0  0  0  0  0  0  0  0  0  0  0
   -9.1414   -7.0164   32.3706 F   0  0  0  0  0  0  0  0  0  0  0  0
   -8.0634   -7.3077   34.0005 F   0  0  0  0  0  0  0  0  0  0  0  0
   -7.3223  -12.0206   32.5088 H   0  0  0  0  0  0  0  0  0  0  0  0
   -7.9652  -11.6792   34.0764 H   0  0  0  0  0  0  0  0  0  0  0  0
   -8.9377  -13.3611   34.6840 H   0  0  0  0  0  0  0  0  0  0  0  0
  -10.6624  -14.4379   33.1342 H   0  0  0  0  0  0  0  0  0  0  0  0
   -9.3289  -14.9775   32.1172 H   0  0  0  0  0  0  0  0  0  0  0  0
   -9.6473  -16.7330   33.9087 H   0  0  0  0  0  0  0  0  0  0  0  0
   -9.7910  -15.4786   35.1090 H   0  0  0  0  0  0  0  0  0  0  0  0
   -7.5183  -15.6824   35.3867 H   0  0  0  0  0  0  0  0  0  0  0  0
   -7.2894  -16.5008   33.8233 H   0  0  0  0  0  0  0  0  0  0  0  0
   -6.6842  -13.9209   34.1935 H   0  0  0  0  0  0  0  0  0  0  0  0
  1  2  2  0
  2  3  2  0
  2  4  1  0
  4  5  1  0
  5  6  1  0
  6  7  1  0
  7  8  1  0
  8  9  1  0
  9 10  1  0
  2 11  1  0
 11 12  1  0
 11 13  1  0
 11 14  1  0
 10  6  1  0
  5 15  1  0
  5 16  1  0
  6 17  1  0
  7 18  1  0
  7 19  1  0
  8 20  1  0
  8 21  1  0
  9 22  1  0
  9 23  1  0
 10 24  1  0
M  END
>  <Energy>  (763) 
360.19807850525768

>  <compound_id>  (763) 
58645

>  <target_id>  (763) 
1

>  <reference_id>  (763) 
53

>  <inspiration_ids>  (763) 
[53, 123]

>  <energy_score>  (763) 
198.428367124587

>  <distance_score>  (763) 
13.368087569410385

>  <path>  (763) 
/opt/xchem-fragalysis-2/maxwin/BulkDock/SCRATCH/511024/C58645-P53/C58645-P53.minimised.mol

>  <scratch_subdir>  (763) 
/opt/xchem-fragalysis-2/maxwin/BulkDock/SCRATCH/511024/C58645-P53

>  <fragmenstein_runtime>  (763) 
21.757877826690674

>  <fragmenstein_outcome>  (763) 
too moved

>  <fragmenstein_mode>  (763) 
expansion

>  <fragmenstein_error>  (763) 


$$$$
C58645-P123
     RDKit          3D

 24 24  0  0  0  0  0  0  0  0999 V2000
   -5.9253   -8.9884   30.4543 O   0  0  0  0  0  0  0  0  0  0  0  0
   -6.7247   -9.0622   29.2659 S   0  0  0  0  0  0  0  0  0  0  0  0
   -6.5690   -9.3058   27.8620 O   0  0  0  0  0  0  0  0  0  0  0  0
   -8.1880  -10.2044   30.3694 O   0  0  0  0  0  0  0  0  0  0  0  0
   -8.6902  -11.1073   32.0855 C   0  0  0  0  0  0  0  0  0  0  0  0
   -8.9787  -12.8599   33.2183 C   0  0  0  0  0  0  0  0  0  0  0  0
   -9.7268  -14.3221   32.7167 C   0  0  0  0  0  0  0  0  0  0  0  0
   -9.4564  -15.3096   33.8477 C   0  0  0  0  0  0  0  0  0  0  0  0
   -9.6494  -14.4615   35.0718 C   0  0  0  0  0  0  0  0  0  0  0  0
   -9.2659  -13.1177   34.6659 N   0  0  0  0  0  0  0  0  0  0  0  0
   -6.4565   -6.6296   29.2644 C   0  0  0  0  0  0  0  0  0  0  0  0
   -7.0500   -5.6219   28.1092 F   0  0  0  0  0  0  0  0  0  0  0  0
   -5.6543   -5.5563   29.3505 F   0  0  0  0  0  0  0  0  0  0  0  0
   -6.8339   -6.2943   30.6599 F   0  0  0  0  0  0  0  0  0  0  0  0
   -7.8671  -11.0817   32.7097 H   0  0  0  0  0  0  0  0  0  0  0  0
   -9.5905  -10.5526   32.1894 H   0  0  0  0  0  0  0  0  0  0  0  0
   -8.0050  -13.3809   33.1734 H   0  0  0  0  0  0  0  0  0  0  0  0
  -10.8125  -14.2518   32.6205 H   0  0  0  0  0  0  0  0  0  0  0  0
   -9.3003  -14.7553   31.8063 H   0  0  0  0  0  0  0  0  0  0  0  0
   -8.4254  -15.6775   33.7877 H   0  0  0  0  0  0  0  0  0  0  0  0
  -10.1340  -16.1665   33.8262 H   0  0  0  0  0  0  0  0  0  0  0  0
  -10.6992  -14.4725   35.3826 H   0  0  0  0  0  0  0  0  0  0  0  0
   -9.0522  -14.8281   35.9118 H   0  0  0  0  0  0  0  0  0  0  0  0
   -9.3583  -12.3220   35.2922 H   0  0  0  0  0  0  0  0  0  0  0  0
  1  2  2  0
  2  3  2  0
  2  4  1  0
  4  5  1  0
  5  6  1  0
  6  7  1  0
  7  8  1  0
  8  9  1  0
  9 10  1  0
  2 11  1  0
 11 12  1  0
 11 13  1  0
 11 14  1  0
 10  6  1  0
  5 15  1  0
  5 16  1  0
  6 17  1  0
  7 18  1  0
  7 19  1  0
  8 20  1  0
  8 21  1  0
  9 22  1  0
  9 23  1  0
 10 24  1  0
M  END
>  <Energy>  (764) 
818.87016824579109

>  <compound_id>  (764) 
58645

>  <target_id>  (764) 
1

>  <reference_id>  (764) 
123

>  <inspiration_ids>  (764) 
[53, 123]

>  <energy_score>  (764) 
657.1004568651243

>  <distance_score>  (764) 
11.585788701392346

>  <path>  (764) 
/opt/xchem-fragalysis-2/maxwin/BulkDock/SCRATCH/511024/C58645-P123/C58645-P123.minimised.mol

>  <scratch_subdir>  (764) 
/opt/xchem-fragalysis-2/maxwin/BulkDock/SCRATCH/511024/C58645-P123

>  <fragmenstein_runtime>  (764) 
21.34799551963806

>  <fragmenstein_outcome>  (764) 
too moved

>  <fragmenstein_mode>  (764) 
expansion

>  <fragmenstein_error>  (764) 


$$$$
C58650-P53
     RDKit          3D

 40 40  0  0  0  0  0  0  0  0999 V2000
   -4.5159   -7.6215   32.1913 C   0  0  0  0  0  0  0  0  0  0  0  0
   -5.3047   -8.3678   33.3064 C   0  0  0  0  0  0  0  0  0  0  0  0
   -4.3358   -8.6789   34.4597 C   0  0  0  0  0  0  0  0  0  0  0  0
   -6.3644   -7.3712   33.8042 C   0  0  0  0  0  0  0  0  0  0  0  0
   -5.9296   -9.7393   32.7679 C   0  0  0  0  0  0  0  0  0  0  0  0
   -6.3862  -10.9452   33.7272 C   0  0  0  0  0  0  0  0  0  0  0  0
   -6.8396  -12.1638   33.0025 O   0  0  0  0  0  0  0  0  0  0  0  0
   -6.9571  -13.3670   33.8327 C   0  0  0  0  0  0  0  0  0  0  0  0
   -7.5656  -14.4988   33.1619 O   0  0  0  0  0  0  0  0  0  0  0  0
   -6.9679  -15.7749   33.4779 C   0  0  0  0  0  0  0  0  0  0  0  0
   -7.4059  -16.3734   34.8443 C   0  0  0  0  0  0  0  0  0  0  0  0
   -8.8514  -16.8746   34.9022 C   0  0  0  0  0  0  0  0  0  0  0  0
   -8.7617  -18.3947   35.0092 C   0  0  0  0  0  0  0  0  0  0  0  0
   -7.3192  -18.7135   34.6860 C   0  0  0  0  0  0  0  0  0  0  0  0
   -6.5945  -17.5512   35.2210 N   0  0  0  0  0  0  0  0  0  0  0  0
   -4.1241   -6.6642   32.5535 H   0  0  0  0  0  0  0  0  0  0  0  0
   -5.1463   -7.4200   31.3218 H   0  0  0  0  0  0  0  0  0  0  0  0
   -3.6608   -8.2214   31.8669 H   0  0  0  0  0  0  0  0  0  0  0  0
   -4.8639   -9.1025   35.3208 H   0  0  0  0  0  0  0  0  0  0  0  0
   -3.8233   -7.7734   34.8043 H   0  0  0  0  0  0  0  0  0  0  0  0
   -3.5680   -9.3949   34.1460 H   0  0  0  0  0  0  0  0  0  0  0  0
   -6.9960   -7.8338   34.5707 H   0  0  0  0  0  0  0  0  0  0  0  0
   -5.9016   -6.4831   34.2501 H   0  0  0  0  0  0  0  0  0  0  0  0
   -7.0181   -7.0297   33.0002 H   0  0  0  0  0  0  0  0  0  0  0  0
   -6.7636   -9.5295   32.0943 H   0  0  0  0  0  0  0  0  0  0  0  0
   -5.1522  -10.1857   32.1576 H   0  0  0  0  0  0  0  0  0  0  0  0
   -7.2155  -10.6110   34.3583 H   0  0  0  0  0  0  0  0  0  0  0  0
   -5.5411  -11.2350   34.3595 H   0  0  0  0  0  0  0  0  0  0  0  0
   -5.9496  -13.6181   34.1807 H   0  0  0  0  0  0  0  0  0  0  0  0
   -7.5864  -13.1237   34.6947 H   0  0  0  0  0  0  0  0  0  0  0  0
   -7.2081  -16.4517   32.6578 H   0  0  0  0  0  0  0  0  0  0  0  0
   -5.8763  -15.6620   33.4505 H   0  0  0  0  0  0  0  0  0  0  0  0
   -7.2715  -15.5933   35.6032 H   0  0  0  0  0  0  0  0  0  0  0  0
   -9.3596  -16.4829   35.7917 H   0  0  0  0  0  0  0  0  0  0  0  0
   -9.4329  -16.5477   34.0386 H   0  0  0  0  0  0  0  0  0  0  0  0
   -8.9991  -18.7050   36.0343 H   0  0  0  0  0  0  0  0  0  0  0  0
   -9.4602  -18.8990   34.3431 H   0  0  0  0  0  0  0  0  0  0  0  0
   -6.9854  -19.6470   35.1484 H   0  0  0  0  0  0  0  0  0  0  0  0
   -7.1357  -18.7776   33.6109 H   0  0  0  0  0  0  0  0  0  0  0  0
   -6.5951  -17.6343   36.2383 H   0  0  0  0  0  0  0  0  0  0  0  0
  1  2  1  0
  2  3  1  0
  2  4  1  0
  2  5  1  0
  5  6  1  0
  6  7  1  0
  7  8  1  0
  8  9  1  0
  9 10  1  0
 10 11  1  0
 11 12  1  0
 12 13  1  0
 13 14  1  0
 14 15  1  0
 15 11  1  0
  1 16  1  0
  1 17  1  0
  1 18  1  0
  3 19  1  0
  3 20  1  0
  3 21  1  0
  4 22  1  0
  4 23  1  0
  4 24  1  0
  5 25  1  0
  5 26  1  0
  6 27  1  0
  6 28  1  0
  8 29  1  0
  8 30  1  0
 10 31  1  0
 10 32  1  0
 11 33  1  0
 12 34  1  0
 12 35  1  0
 13 36  1  0
 13 37  1  0
 14 38  1  0
 14 39  1  0
 15 40  1  0
M  END
>  <Energy>  (765) 
45.974802099318346

>  <compound_id>  (765) 
58650

>  <target_id>  (765) 
1

>  <reference_id>  (765) 
53

>  <inspiration_ids>  (765) 
[53, 123]

>  <energy_score>  (765) 
-14.117595080930641

>  <distance_score>  (765) 
11.640381590913341

>  <path>  (765) 
/opt/xchem-fragalysis-2/maxwin/BulkDock/SCRATCH/511024/C58650-P53/C58650-P53.minimised.mol

>  <scratch_subdir>  (765) 
/opt/xchem-fragalysis-2/maxwin/BulkDock/SCRATCH/511024/C58650-P53

>  <fragmenstein_runtime>  (765) 
31.501932382583618

>  <fragmenstein_outcome>  (765) 
too moved

>  <fragmenstein_mode>  (765) 
expansion

>  <fragmenstein_error>  (765) 


$$$$
C58650-P123
     RDKit          3D

 40 40  0  0  0  0  0  0  0  0999 V2000
   -4.6244   -7.0113   28.5923 C   0  0  0  0  0  0  0  0  0  0  0  0
   -5.8497   -7.6353   29.3850 C   0  0  0  0  0  0  0  0  0  0  0  0
   -6.2657   -5.9461   29.7417 C   0  0  0  0  0  0  0  0  0  0  0  0
   -5.3600   -7.8676   30.9322 C   0  0  0  0  0  0  0  0  0  0  0  0
   -6.9859   -9.1581   28.5397 C   0  0  0  0  0  0  0  0  0  0  0  0
   -8.5069  -10.0179   27.3371 C   0  0  0  0  0  0  0  0  0  0  0  0
   -8.7545  -12.0685   26.7945 O   0  0  0  0  0  0  0  0  0  0  0  0
   -9.4451  -13.8560   27.6513 C   0  0  0  0  0  0  0  0  0  0  0  0
  -10.4397  -15.6606   27.7112 O   0  0  0  0  0  0  0  0  0  0  0  0
  -10.9921  -17.4185   28.6017 C   0  0  0  0  0  0  0  0  0  0  0  0
  -12.0720  -19.3486   28.8448 C   0  0  0  0  0  0  0  0  0  0  0  0
  -11.9997  -21.1281   27.9759 C   0  0  0  0  0  0  0  0  0  0  0  0
  -11.1868  -22.2132   28.6362 C   0  0  0  0  0  0  0  0  0  0  0  0
  -11.8045  -22.1285   29.9662 C   0  0  0  0  0  0  0  0  0  0  0  0
  -11.9754  -20.7022   30.1417 N   0  0  0  0  0  0  0  0  0  0  0  0
   -3.7350   -6.8585   29.2130 H   0  0  0  0  0  0  0  0  0  0  0  0
   -4.7972   -6.0274   28.1380 H   0  0  0  0  0  0  0  0  0  0  0  0
   -4.4156   -7.6120   27.7522 H   0  0  0  0  0  0  0  0  0  0  0  0
   -6.8915   -5.7790   30.6260 H   0  0  0  0  0  0  0  0  0  0  0  0
   -6.6410   -5.3795   28.8802 H   0  0  0  0  0  0  0  0  0  0  0  0
   -5.3502   -5.4115   30.0563 H   0  0  0  0  0  0  0  0  0  0  0  0
   -5.8312   -8.7477   31.3834 H   0  0  0  0  0  0  0  0  0  0  0  0
   -5.6489   -7.0639   31.6221 H   0  0  0  0  0  0  0  0  0  0  0  0
   -4.2748   -7.9054   31.0532 H   0  0  0  0  0  0  0  0  0  0  0  0
   -6.8156   -9.8625   29.3604 H   0  0  0  0  0  0  0  0  0  0  0  0
   -6.3102   -9.2000   27.6903 H   0  0  0  0  0  0  0  0  0  0  0  0
   -7.8471   -9.8108   26.4526 H   0  0  0  0  0  0  0  0  0  0  0  0
   -9.4392   -9.5889   27.7895 H   0  0  0  0  0  0  0  0  0  0  0  0
  -10.3906  -13.5542   27.2009 H   0  0  0  0  0  0  0  0  0  0  0  0
   -8.7003  -14.3817   27.0578 H   0  0  0  0  0  0  0  0  0  0  0  0
   -9.9359  -17.6488   28.5978 H   0  0  0  0  0  0  0  0  0  0  0  0
  -11.3679  -16.8509   29.4516 H   0  0  0  0  0  0  0  0  0  0  0  0
  -10.9223  -20.0148   29.2794 H   0  0  0  0  0  0  0  0  0  0  0  0
  -11.7352  -21.1784   26.9144 H   0  0  0  0  0  0  0  0  0  0  0  0
  -12.9261  -21.6467   28.1085 H   0  0  0  0  0  0  0  0  0  0  0  0
  -10.1380  -21.9777   28.5663 H   0  0  0  0  0  0  0  0  0  0  0  0
  -11.3440  -23.1938   28.1739 H   0  0  0  0  0  0  0  0  0  0  0  0
  -12.7783  -22.6302   30.0140 H   0  0  0  0  0  0  0  0  0  0  0  0
  -11.2043  -22.5659   30.7665 H   0  0  0  0  0  0  0  0  0  0  0  0
  -11.4599  -20.4205   30.9934 H   0  0  0  0  0  0  0  0  0  0  0  0
  1  2  1  0
  2  3  1  0
  2  4  1  0
  2  5  1  0
  5  6  1  0
  6  7  1  0
  7  8  1  0
  8  9  1  0
  9 10  1  0
 10 11  1  0
 11 12  1  0
 12 13  1  0
 13 14  1  0
 14 15  1  0
 15 11  1  0
  1 16  1  0
  1 17  1  0
  1 18  1  0
  3 19  1  0
  3 20  1  0
  3 21  1  0
  4 22  1  0
  4 23  1  0
  4 24  1  0
  5 25  1  0
  5 26  1  0
  6 27  1  0
  6 28  1  0
  8 29  1  0
  8 30  1  0
 10 31  1  0
 10 32  1  0
 11 33  1  0
 12 34  1  0
 12 35  1  0
 13 36  1  0
 13 37  1  0
 14 38  1  0
 14 39  1  0
 15 40  1  0
M  END
>  <Energy>  (766) 
1425.5088512299176

>  <compound_id>  (766) 
58650

>  <target_id>  (766) 
1

>  <reference_id>  (766) 
123

>  <inspiration_ids>  (766) 
[53, 123]

>  <energy_score>  (766) 
1365.4164540496743

>  <distance_score>  (766) 
9.705328234002886

>  <path>  (766) 
/opt/xchem-fragalysis-2/maxwin/BulkDock/SCRATCH/511024/C58650-P123/C58650-P123.minimised.mol

>  <scratch_subdir>  (766) 
/opt/xchem-fragalysis-2/maxwin/BulkDock/SCRATCH/511024/C58650-P123

>  <fragmenstein_runtime>  (766) 
26.65172290802002

>  <fragmenstein_outcome>  (766) 
too moved

>  <fragmenstein_mode>  (766) 
expansion

>  <fragmenstein_error>  (766) 


$$$$
C58655-P53
     RDKit          3D

 31 31  0  0  0  0  0  0  0  0999 V2000
   -2.8014  -17.2424   29.0436 C   0  0  0  0  0  0  0  0  0  0  0  0
   -4.0455  -17.8495   28.3702 C   0  0  0  0  0  0  0  0  0  0  0  0
   -4.5805  -19.2397   28.8562 C   0  0  0  0  0  0  0  0  0  0  0  0
   -5.4686  -19.9995   27.9667 O   0  0  0  0  0  0  0  0  0  0  0  0
   -6.8702  -19.6204   27.8646 C   0  0  0  0  0  0  0  0  0  0  0  0
   -7.8343  -20.9394   27.6714 O   0  0  0  0  0  0  0  0  0  0  0  0
   -9.6117  -20.7383   27.8702 C   0  0  0  0  0  0  0  0  0  0  0  0
  -11.1130  -21.4855   27.8342 C   0  0  0  0  0  0  0  0  0  0  0  0
  -11.0639  -22.6837   28.6564 C   0  0  0  0  0  0  0  0  0  0  0  0
  -11.1603  -21.9927   30.0292 C   0  0  0  0  0  0  0  0  0  0  0  0
  -12.1741  -21.0262   30.0411 N   0  0  0  0  0  0  0  0  0  0  0  0
  -12.2897  -20.8987   28.6549 C   0  0  0  0  0  0  0  0  0  0  0  0
   -2.9771  -17.1039   30.1148 H   0  0  0  0  0  0  0  0  0  0  0  0
   -1.9442  -17.9115   28.9215 H   0  0  0  0  0  0  0  0  0  0  0  0
   -2.5457  -16.2760   28.6040 H   0  0  0  0  0  0  0  0  0  0  0  0
   -3.8973  -17.8881   27.2878 H   0  0  0  0  0  0  0  0  0  0  0  0
   -4.8553  -17.1824   28.6175 H   0  0  0  0  0  0  0  0  0  0  0  0
   -5.0601  -19.1212   29.8332 H   0  0  0  0  0  0  0  0  0  0  0  0
   -3.7130  -19.8925   29.0036 H   0  0  0  0  0  0  0  0  0  0  0  0
   -7.2252  -19.0344   28.7152 H   0  0  0  0  0  0  0  0  0  0  0  0
   -6.8817  -19.0070   26.9655 H   0  0  0  0  0  0  0  0  0  0  0  0
   -9.3813  -21.7534   28.2770 H   0  0  0  0  0  0  0  0  0  0  0  0
   -9.4332  -19.7866   28.3348 H   0  0  0  0  0  0  0  0  0  0  0  0
  -11.4846  -21.6865   26.8308 H   0  0  0  0  0  0  0  0  0  0  0  0
  -10.2072  -23.3386   28.4715 H   0  0  0  0  0  0  0  0  0  0  0  0
  -11.9281  -23.2634   28.3650 H   0  0  0  0  0  0  0  0  0  0  0  0
  -10.4148  -21.2599   30.2124 H   0  0  0  0  0  0  0  0  0  0  0  0
  -11.1754  -22.6245   30.9009 H   0  0  0  0  0  0  0  0  0  0  0  0
  -13.0117  -21.4958   30.3935 H   0  0  0  0  0  0  0  0  0  0  0  0
  -12.5701  -19.8838   28.7480 H   0  0  0  0  0  0  0  0  0  0  0  0
  -13.1244  -21.3950   28.2759 H   0  0  0  0  0  0  0  0  0  0  0  0
  1  2  1  0
  2  3  1  0
  3  4  1  0
  4  5  1  0
  5  6  1  0
  6  7  1  0
  7  8  1  0
  8  9  1  0
  9 10  1  0
 10 11  1  0
 11 12  1  0
 12  8  1  0
  1 13  1  0
  1 14  1  0
  1 15  1  0
  2 16  1  0
  2 17  1  0
  3 18  1  0
  3 19  1  0
  5 20  1  0
  5 21  1  0
  7 22  1  0
  7 23  1  0
  8 24  1  0
  9 25  1  0
  9 26  1  0
 10 27  1  0
 10 28  1  0
 11 29  1  0
 12 30  1  0
 12 31  1  0
M  END
>  <Energy>  (767) 
199.4880957319902

>  <compound_id>  (767) 
58655

>  <target_id>  (767) 
1

>  <reference_id>  (767) 
53

>  <inspiration_ids>  (767) 
[53, 123]

>  <energy_score>  (767) 
175.9174332487362

>  <distance_score>  (767) 
12.994677503575163

>  <path>  (767) 
/opt/xchem-fragalysis-2/maxwin/BulkDock/SCRATCH/511024/C58655-P53/C58655-P53.minimised.mol

>  <scratch_subdir>  (767) 
/opt/xchem-fragalysis-2/maxwin/BulkDock/SCRATCH/511024/C58655-P53

>  <fragmenstein_runtime>  (767) 
11.960326194763184

>  <fragmenstein_outcome>  (767) 
too moved

>  <fragmenstein_mode>  (767) 
expansion

>  <fragmenstein_error>  (767) 


$$$$
C58655-P123
     RDKit          3D

 31 31  0  0  0  0  0  0  0  0999 V2000
   -4.9024  -14.6507   32.4215 C   0  0  0  0  0  0  0  0  0  0  0  0
   -6.1709  -15.5171   32.5993 C   0  0  0  0  0  0  0  0  0  0  0  0
   -5.9710  -16.9998   33.1381 C   0  0  0  0  0  0  0  0  0  0  0  0
   -7.2099  -17.7838   33.3022 O   0  0  0  0  0  0  0  0  0  0  0  0
   -6.9536  -19.1304   33.8714 C   0  0  0  0  0  0  0  0  0  0  0  0
   -7.9931  -20.2560   33.9927 O   0  0  0  0  0  0  0  0  0  0  0  0
   -8.1089  -21.4726   33.0963 C   0  0  0  0  0  0  0  0  0  0  0  0
   -9.0276  -23.2052   32.9995 C   0  0  0  0  0  0  0  0  0  0  0  0
   -8.8905  -24.5731   32.1760 C   0  0  0  0  0  0  0  0  0  0  0  0
  -10.2078  -25.3118   32.3872 C   0  0  0  0  0  0  0  0  0  0  0  0
  -11.1237  -24.2936   31.9301 N   0  0  0  0  0  0  0  0  0  0  0  0
  -10.6650  -23.0976   32.6249 C   0  0  0  0  0  0  0  0  0  0  0  0
   -5.1716  -13.6609   32.0411 H   0  0  0  0  0  0  0  0  0  0  0  0
   -4.3871  -14.5311   33.3789 H   0  0  0  0  0  0  0  0  0  0  0  0
   -4.2164  -15.1236   31.7126 H   0  0  0  0  0  0  0  0  0  0  0  0
   -6.6977  -15.5821   31.6393 H   0  0  0  0  0  0  0  0  0  0  0  0
   -6.8612  -15.0062   33.2815 H   0  0  0  0  0  0  0  0  0  0  0  0
   -5.4736  -16.9512   34.1132 H   0  0  0  0  0  0  0  0  0  0  0  0
   -5.3260  -17.5403   32.4365 H   0  0  0  0  0  0  0  0  0  0  0  0
   -6.0194  -19.5457   33.4665 H   0  0  0  0  0  0  0  0  0  0  0  0
   -6.7930  -18.8302   34.9132 H   0  0  0  0  0  0  0  0  0  0  0  0
   -8.9209  -20.9615   32.5534 H   0  0  0  0  0  0  0  0  0  0  0  0
   -7.1873  -21.4964   32.5328 H   0  0  0  0  0  0  0  0  0  0  0  0
   -8.7139  -23.6122   33.9308 H   0  0  0  0  0  0  0  0  0  0  0  0
   -8.0874  -25.2363   32.4663 H   0  0  0  0  0  0  0  0  0  0  0  0
   -8.8435  -24.5015   31.0942 H   0  0  0  0  0  0  0  0  0  0  0  0
  -10.3824  -25.5652   33.4380 H   0  0  0  0  0  0  0  0  0  0  0  0
  -10.2836  -26.2090   31.7668 H   0  0  0  0  0  0  0  0  0  0  0  0
  -12.0887  -24.5192   32.1856 H   0  0  0  0  0  0  0  0  0  0  0  0
  -10.8526  -22.2304   31.9807 H   0  0  0  0  0  0  0  0  0  0  0  0
  -11.3045  -23.0254   33.5113 H   0  0  0  0  0  0  0  0  0  0  0  0
  1  2  1  0
  2  3  1  0
  3  4  1  0
  4  5  1  0
  5  6  1  0
  6  7  1  0
  7  8  1  0
  8  9  1  0
  9 10  1  0
 10 11  1  0
 11 12  1  0
 12  8  1  0
  1 13  1  0
  1 14  1  0
  1 15  1  0
  2 16  1  0
  2 17  1  0
  3 18  1  0
  3 19  1  0
  5 20  1  0
  5 21  1  0
  7 22  1  0
  7 23  1  0
  8 24  1  0
  9 25  1  0
  9 26  1  0
 10 27  1  0
 10 28  1  0
 11 29  1  0
 12 30  1  0
 12 31  1  0
M  END
>  <Energy>  (768) 
141.81532578859427

>  <compound_id>  (768) 
58655

>  <target_id>  (768) 
1

>  <reference_id>  (768) 
123

>  <inspiration_ids>  (768) 
[53, 123]

>  <energy_score>  (768) 
118.24466330534497

>  <distance_score>  (768) 
12.631552202506771

>  <path>  (768) 
/opt/xchem-fragalysis-2/maxwin/BulkDock/SCRATCH/511024/C58655-P123/C58655-P123.minimised.mol

>  <scratch_subdir>  (768) 
/opt/xchem-fragalysis-2/maxwin/BulkDock/SCRATCH/511024/C58655-P123

>  <fragmenstein_runtime>  (768) 
9.17329216003418

>  <fragmenstein_outcome>  (768) 
too moved

>  <fragmenstein_mode>  (768) 
expansion

>  <fragmenstein_error>  (768) 


$$$$
C58666-P53
     RDKit          3D

 29 29  0  0  0  0  0  0  0  0999 V2000
   -7.1676  -15.2782   29.7911 O   0  0  0  0  0  0  0  0  0  0  0  0
   -7.4236  -15.0627   28.5976 C   0  0  0  0  0  0  0  0  0  0  0  0
   -8.1866  -16.5189   27.5705 C   0  0  0  0  0  0  0  0  0  0  0  0
   -9.1284  -18.1656   28.1036 C   0  0  0  0  0  0  0  0  0  0  0  0
   -9.6023  -20.2339   28.0295 C   0  0  0  0  0  0  0  0  0  0  0  0
  -11.0912  -21.2982   27.3769 C   0  0  0  0  0  0  0  0  0  0  0  0
  -10.9702  -22.6547   27.9733 C   0  0  0  0  0  0  0  0  0  0  0  0
  -11.0778  -22.2561   29.3460 N   0  0  0  0  0  0  0  0  0  0  0  0
  -10.7511  -20.8564   29.4653 C   0  0  0  0  0  0  0  0  0  0  0  0
   -6.9444  -13.5887   28.0495 O   0  0  0  0  0  0  0  0  0  0  0  0
   -5.9431  -12.0145   28.5097 C   0  0  0  0  0  0  0  0  0  0  0  0
   -6.7353  -10.1097   29.1084 C   0  0  0  0  0  0  0  0  0  0  0  0
   -7.9930   -9.9460   29.6168 F   0  0  0  0  0  0  0  0  0  0  0  0
   -6.7756   -9.2530   27.9559 F   0  0  0  0  0  0  0  0  0  0  0  0
   -6.2700   -9.1057   29.8753 F   0  0  0  0  0  0  0  0  0  0  0  0
   -8.9041  -16.0291   26.9018 H   0  0  0  0  0  0  0  0  0  0  0  0
   -7.3303  -16.8947   26.9974 H   0  0  0  0  0  0  0  0  0  0  0  0
   -8.3116  -18.1851   28.8220 H   0  0  0  0  0  0  0  0  0  0  0  0
  -10.0071  -17.6234   28.5099 H   0  0  0  0  0  0  0  0  0  0  0  0
   -8.6484  -20.8192   27.7725 H   0  0  0  0  0  0  0  0  0  0  0  0
  -12.0951  -20.9917   27.7381 H   0  0  0  0  0  0  0  0  0  0  0  0
  -11.4181  -21.2010   26.3508 H   0  0  0  0  0  0  0  0  0  0  0  0
  -11.7746  -23.2932   27.6206 H   0  0  0  0  0  0  0  0  0  0  0  0
  -10.0393  -23.2005   27.8075 H   0  0  0  0  0  0  0  0  0  0  0  0
  -12.0599  -22.3623   29.6482 H   0  0  0  0  0  0  0  0  0  0  0  0
  -10.5088  -20.7071   30.5006 H   0  0  0  0  0  0  0  0  0  0  0  0
  -11.7513  -20.3936   29.4594 H   0  0  0  0  0  0  0  0  0  0  0  0
   -5.5306  -11.9924   27.4847 H   0  0  0  0  0  0  0  0  0  0  0  0
   -5.2056  -12.3588   29.2275 H   0  0  0  0  0  0  0  0  0  0  0  0
  1  2  2  0
  2  3  1  0
  3  4  1  0
  4  5  1  0
  5  6  1  0
  6  7  1  0
  7  8  1  0
  8  9  1  0
  2 10  1  0
 10 11  1  0
 11 12  1  0
 12 13  1  0
 12 14  1  0
 12 15  1  0
  9  5  1  0
  3 16  1  0
  3 17  1  0
  4 18  1  0
  4 19  1  0
  5 20  1  0
  6 21  1  0
  6 22  1  0
  7 23  1  0
  7 24  1  0
  8 25  1  0
  9 26  1  0
  9 27  1  0
 11 28  1  0
 11 29  1  0
M  END
>  <Energy>  (769) 
648.39661003305662

>  <compound_id>  (769) 
58666

>  <target_id>  (769) 
1

>  <reference_id>  (769) 
53

>  <inspiration_ids>  (769) 
[53, 123]

>  <energy_score>  (769) 
597.9427374446481

>  <distance_score>  (769) 
9.583739406121884

>  <path>  (769) 
/opt/xchem-fragalysis-2/maxwin/BulkDock/SCRATCH/511024/C58666-P53/C58666-P53.minimised.mol

>  <scratch_subdir>  (769) 
/opt/xchem-fragalysis-2/maxwin/BulkDock/SCRATCH/511024/C58666-P53

>  <fragmenstein_runtime>  (769) 
18.055394887924194

>  <fragmenstein_outcome>  (769) 
too moved

>  <fragmenstein_mode>  (769) 
expansion

>  <fragmenstein_error>  (769) 


$$$$
C58666-P123
     RDKit          3D

 29 29  0  0  0  0  0  0  0  0999 V2000
   -5.2895  -13.5009   30.2208 O   0  0  0  0  0  0  0  0  0  0  0  0
   -6.3658  -13.3343   30.6515 C   0  0  0  0  0  0  0  0  0  0  0  0
   -7.6157  -15.0633   30.1182 C   0  0  0  0  0  0  0  0  0  0  0  0
   -8.1191  -16.9636   29.0821 C   0  0  0  0  0  0  0  0  0  0  0  0
   -9.0502  -18.8183   28.3088 C   0  0  0  0  0  0  0  0  0  0  0  0
   -9.3623  -20.7645   27.6980 C   0  0  0  0  0  0  0  0  0  0  0  0
  -10.3863  -22.0558   28.1360 C   0  0  0  0  0  0  0  0  0  0  0  0
  -10.6766  -21.7336   29.4261 N   0  0  0  0  0  0  0  0  0  0  0  0
  -10.2994  -20.3191   29.3883 C   0  0  0  0  0  0  0  0  0  0  0  0
   -6.4237  -11.5105   31.4420 O   0  0  0  0  0  0  0  0  0  0  0  0
   -6.0325   -9.4616   31.0684 C   0  0  0  0  0  0  0  0  0  0  0  0
   -6.5109   -7.3652   31.6362 C   0  0  0  0  0  0  0  0  0  0  0  0
   -6.7630   -6.4962   30.4338 F   0  0  0  0  0  0  0  0  0  0  0  0
   -6.0239   -6.2436   31.8837 F   0  0  0  0  0  0  0  0  0  0  0  0
   -7.5413   -7.1254   32.5448 F   0  0  0  0  0  0  0  0  0  0  0  0
   -7.3597  -14.7580   29.0868 H   0  0  0  0  0  0  0  0  0  0  0  0
   -6.9232  -15.6818   30.7131 H   0  0  0  0  0  0  0  0  0  0  0  0
   -8.7203  -16.3909   28.3497 H   0  0  0  0  0  0  0  0  0  0  0  0
   -7.1312  -17.1029   28.6139 H   0  0  0  0  0  0  0  0  0  0  0  0
   -8.0508  -19.1296   28.3937 H   0  0  0  0  0  0  0  0  0  0  0  0
   -8.3108  -21.2041   27.4726 H   0  0  0  0  0  0  0  0  0  0  0  0
  -10.0033  -20.6842   26.8554 H   0  0  0  0  0  0  0  0  0  0  0  0
  -11.2896  -22.0851   27.5073 H   0  0  0  0  0  0  0  0  0  0  0  0
   -9.8816  -23.0280   28.0559 H   0  0  0  0  0  0  0  0  0  0  0  0
  -11.6297  -21.9478   29.7162 H   0  0  0  0  0  0  0  0  0  0  0  0
  -11.4257  -20.2386   29.1976 H   0  0  0  0  0  0  0  0  0  0  0  0
  -10.3010  -20.3611   30.5050 H   0  0  0  0  0  0  0  0  0  0  0  0
   -6.3513   -9.5694   30.0243 H   0  0  0  0  0  0  0  0  0  0  0  0
   -5.1919   -9.5352   31.8437 H   0  0  0  0  0  0  0  0  0  0  0  0
  1  2  2  0
  2  3  1  0
  3  4  1  0
  4  5  1  0
  5  6  1  0
  6  7  1  0
  7  8  1  0
  8  9  1  0
  2 10  1  0
 10 11  1  0
 11 12  1  0
 12 13  1  0
 12 14  1  0
 12 15  1  0
  9  5  1  0
  3 16  1  0
  3 17  1  0
  4 18  1  0
  4 19  1  0
  5 20  1  0
  6 21  1  0
  6 22  1  0
  7 23  1  0
  7 24  1  0
  8 25  1  0
  9 26  1  0
  9 27  1  0
 11 28  1  0
 11 29  1  0
M  END
>  <Energy>  (770) 
1576.6720783544367

>  <compound_id>  (770) 
58666

>  <target_id>  (770) 
1

>  <reference_id>  (770) 
123

>  <inspiration_ids>  (770) 
[53, 123]

>  <energy_score>  (770) 
1526.2182057660493

>  <distance_score>  (770) 
9.666362003096708

>  <path>  (770) 
/opt/xchem-fragalysis-2/maxwin/BulkDock/SCRATCH/511024/C58666-P123/C58666-P123.minimised.mol

>  <scratch_subdir>  (770) 
/opt/xchem-fragalysis-2/maxwin/BulkDock/SCRATCH/511024/C58666-P123

>  <fragmenstein_runtime>  (770) 
12.92155146598816

>  <fragmenstein_outcome>  (770) 
too moved

>  <fragmenstein_mode>  (770) 
expansion

>  <fragmenstein_error>  (770) 


$$$$
C58668-P53
     RDKit          3D

 32 32  0  0  0  0  0  0  0  0999 V2000
   -6.4435  -12.8663   25.8720 C   0  0  0  0  0  0  0  0  0  0  0  0
   -7.9098  -13.2819   25.8927 C   0  0  0  0  0  0  0  0  0  0  0  0
   -8.1322  -13.7936   24.6511 F   0  0  0  0  0  0  0  0  0  0  0  0
   -8.6720  -12.1570   25.9063 F   0  0  0  0  0  0  0  0  0  0  0  0
   -8.2330  -14.3764   27.0172 C   0  0  0  0  0  0  0  0  0  0  0  0
   -9.5377  -15.0744   27.0642 O   0  0  0  0  0  0  0  0  0  0  0  0
   -9.9716  -15.6013   28.2922 C   0  0  0  0  0  0  0  0  0  0  0  0
   -9.8533  -15.0538   29.3709 O   0  0  0  0  0  0  0  0  0  0  0  0
  -10.5269  -17.0260   28.1411 C   0  0  0  0  0  0  0  0  0  0  0  0
  -11.8786  -17.8658   29.0050 C   0  0  0  0  0  0  0  0  0  0  0  0
  -12.3518  -19.8591   29.1474 C   0  0  0  0  0  0  0  0  0  0  0  0
  -11.2102  -21.1618   28.9682 C   0  0  0  0  0  0  0  0  0  0  0  0
  -11.0401  -21.5414   30.3486 C   0  0  0  0  0  0  0  0  0  0  0  0
  -12.0011  -20.8585   31.0474 N   0  0  0  0  0  0  0  0  0  0  0  0
  -13.0299  -20.7464   30.0919 C   0  0  0  0  0  0  0  0  0  0  0  0
   -6.3555  -12.0300   25.1777 H   0  0  0  0  0  0  0  0  0  0  0  0
   -6.0539  -12.6028   26.8554 H   0  0  0  0  0  0  0  0  0  0  0  0
   -5.8249  -13.6823   25.4833 H   0  0  0  0  0  0  0  0  0  0  0  0
   -7.5214  -15.1928   26.8385 H   0  0  0  0  0  0  0  0  0  0  0  0
   -8.0051  -13.9953   28.0067 H   0  0  0  0  0  0  0  0  0  0  0  0
   -9.6145  -17.6222   28.2041 H   0  0  0  0  0  0  0  0  0  0  0  0
  -10.8391  -16.9196   27.1048 H   0  0  0  0  0  0  0  0  0  0  0  0
  -12.6725  -17.3253   28.4987 H   0  0  0  0  0  0  0  0  0  0  0  0
  -11.9220  -17.2001   29.8568 H   0  0  0  0  0  0  0  0  0  0  0  0
  -12.6961  -20.2637   28.2240 H   0  0  0  0  0  0  0  0  0  0  0  0
  -11.6997  -21.9828   28.4113 H   0  0  0  0  0  0  0  0  0  0  0  0
  -10.3237  -21.0862   28.3608 H   0  0  0  0  0  0  0  0  0  0  0  0
  -10.2709  -21.1063   30.8918 H   0  0  0  0  0  0  0  0  0  0  0  0
  -11.1434  -22.5841   30.5000 H   0  0  0  0  0  0  0  0  0  0  0  0
  -11.6643  -20.0439   31.5227 H   0  0  0  0  0  0  0  0  0  0  0  0
  -14.0293  -20.7685   30.5501 H   0  0  0  0  0  0  0  0  0  0  0  0
  -13.1820  -21.6921   29.5566 H   0  0  0  0  0  0  0  0  0  0  0  0
  1  2  1  0
  2  3  1  0
  2  4  1  0
  2  5  1  0
  5  6  1  0
  6  7  1  0
  7  8  2  0
  7  9  1  0
  9 10  1  0
 10 11  1  0
 11 12  1  0
 12 13  1  0
 13 14  1  0
 14 15  1  0
 15 11  1  0
  1 16  1  0
  1 17  1  0
  1 18  1  0
  5 19  1  0
  5 20  1  0
  9 21  1  0
  9 22  1  0
 10 23  1  0
 10 24  1  0
 11 25  1  0
 12 26  1  0
 12 27  1  0
 13 28  1  0
 13 29  1  0
 14 30  1  0
 15 31  1  0
 15 32  1  0
M  END
>  <Energy>  (771) 
256.79220119458324

>  <compound_id>  (771) 
58668

>  <target_id>  (771) 
1

>  <reference_id>  (771) 
53

>  <inspiration_ids>  (771) 
[53, 123]

>  <energy_score>  (771) 
207.46858851346542

>  <distance_score>  (771) 
11.90546613520172

>  <path>  (771) 
/opt/xchem-fragalysis-2/maxwin/BulkDock/SCRATCH/511024/C58668-P53/C58668-P53.minimised.mol

>  <scratch_subdir>  (771) 
/opt/xchem-fragalysis-2/maxwin/BulkDock/SCRATCH/511024/C58668-P53

>  <fragmenstein_runtime>  (771) 
15.007927656173706

>  <fragmenstein_outcome>  (771) 
too moved

>  <fragmenstein_mode>  (771) 
expansion

>  <fragmenstein_error>  (771) 


$$$$
C58668-P123
     RDKit          3D

 32 32  0  0  0  0  0  0  0  0999 V2000
   -7.0420   -6.8077   26.0745 C   0  0  0  0  0  0  0  0  0  0  0  0
   -7.4748   -8.9680   26.3844 C   0  0  0  0  0  0  0  0  0  0  0  0
   -7.1747   -9.0232   24.9000 F   0  0  0  0  0  0  0  0  0  0  0  0
   -6.4211   -9.1825   27.2730 F   0  0  0  0  0  0  0  0  0  0  0  0
   -7.8777  -11.0717   25.9185 C   0  0  0  0  0  0  0  0  0  0  0  0
   -8.4571  -12.8326   26.7210 O   0  0  0  0  0  0  0  0  0  0  0  0
   -8.3761  -14.6741   26.7620 C   0  0  0  0  0  0  0  0  0  0  0  0
   -7.5612  -15.0826   25.9027 O   0  0  0  0  0  0  0  0  0  0  0  0
   -9.2507  -16.2983   27.7418 C   0  0  0  0  0  0  0  0  0  0  0  0
   -9.4212  -18.3763   28.1773 C   0  0  0  0  0  0  0  0  0  0  0  0
  -10.1516  -20.3381   29.0761 C   0  0  0  0  0  0  0  0  0  0  0  0
  -10.2584  -21.8459   28.2679 C   0  0  0  0  0  0  0  0  0  0  0  0
  -11.1781  -22.9286   28.8483 C   0  0  0  0  0  0  0  0  0  0  0  0
  -12.3534  -22.1643   29.0639 N   0  0  0  0  0  0  0  0  0  0  0  0
  -11.8469  -20.8509   29.4429 C   0  0  0  0  0  0  0  0  0  0  0  0
   -6.6859   -6.6618   25.0182 H   0  0  0  0  0  0  0  0  0  0  0  0
   -6.6350   -6.0052   26.8107 H   0  0  0  0  0  0  0  0  0  0  0  0
   -7.9888   -6.1717   26.1384 H   0  0  0  0  0  0  0  0  0  0  0  0
   -6.9157  -11.4540   25.5564 H   0  0  0  0  0  0  0  0  0  0  0  0
   -8.5672  -11.2409   25.0814 H   0  0  0  0  0  0  0  0  0  0  0  0
   -9.1217  -15.9251   28.7656 H   0  0  0  0  0  0  0  0  0  0  0  0
  -10.2838  -16.1362   27.3964 H   0  0  0  0  0  0  0  0  0  0  0  0
  -10.2311  -17.8243   28.7555 H   0  0  0  0  0  0  0  0  0  0  0  0
   -8.3502  -18.4055   28.4340 H   0  0  0  0  0  0  0  0  0  0  0  0
  -10.0188  -20.6013   30.1378 H   0  0  0  0  0  0  0  0  0  0  0  0
  -10.8127  -21.6344   27.3449 H   0  0  0  0  0  0  0  0  0  0  0  0
   -9.2947  -22.3527   28.1695 H   0  0  0  0  0  0  0  0  0  0  0  0
  -11.3507  -23.7234   28.1148 H   0  0  0  0  0  0  0  0  0  0  0  0
  -10.8889  -23.4124   29.7800 H   0  0  0  0  0  0  0  0  0  0  0  0
  -12.9025  -22.5822   29.8197 H   0  0  0  0  0  0  0  0  0  0  0  0
  -11.8410  -20.9668   30.5371 H   0  0  0  0  0  0  0  0  0  0  0  0
  -12.5604  -20.1252   29.0972 H   0  0  0  0  0  0  0  0  0  0  0  0
  1  2  1  0
  2  3  1  0
  2  4  1  0
  2  5  1  0
  5  6  1  0
  6  7  1  0
  7  8  2  0
  7  9  1  0
  9 10  1  0
 10 11  1  0
 11 12  1  0
 12 13  1  0
 13 14  1  0
 14 15  1  0
 15 11  1  0
  1 16  1  0
  1 17  1  0
  1 18  1  0
  5 19  1  0
  5 20  1  0
  9 21  1  0
  9 22  1  0
 10 23  1  0
 10 24  1  0
 11 25  1  0
 12 26  1  0
 12 27  1  0
 13 28  1  0
 13 29  1  0
 14 30  1  0
 15 31  1  0
 15 32  1  0
M  END
>  <Energy>  (772) 
1147.2095693712452

>  <compound_id>  (772) 
58668

>  <target_id>  (772) 
1

>  <reference_id>  (772) 
123

>  <inspiration_ids>  (772) 
[53, 123]

>  <energy_score>  (772) 
1097.885956690136

>  <distance_score>  (772) 
9.775739953306863

>  <path>  (772) 
/opt/xchem-fragalysis-2/maxwin/BulkDock/SCRATCH/511024/C58668-P123/C58668-P123.minimised.mol

>  <scratch_subdir>  (772) 
/opt/xchem-fragalysis-2/maxwin/BulkDock/SCRATCH/511024/C58668-P123

>  <fragmenstein_runtime>  (772) 
15.616440773010254

>  <fragmenstein_outcome>  (772) 
too moved

>  <fragmenstein_mode>  (772) 
expansion

>  <fragmenstein_error>  (772) 


$$$$
C58677-P53
     RDKit          3D

 41 41  0  0  0  0  0  0  0  0999 V2000
   -6.7227  -13.2507   25.6307 C   0  0  0  0  0  0  0  0  0  0  0  0
   -6.2797  -13.7570   26.9932 C   0  0  0  0  0  0  0  0  0  0  0  0
   -5.1595  -14.4975   26.8230 F   0  0  0  0  0  0  0  0  0  0  0  0
   -5.8337  -12.6918   27.7163 F   0  0  0  0  0  0  0  0  0  0  0  0
   -7.3941  -14.5717   27.7859 C   0  0  0  0  0  0  0  0  0  0  0  0
   -7.8952  -16.0464   27.4753 C   0  0  0  0  0  0  0  0  0  0  0  0
   -9.3301  -16.3349   28.0961 C   0  0  0  0  0  0  0  0  0  0  0  0
   -9.5631  -17.7181   28.5606 O   0  0  0  0  0  0  0  0  0  0  0  0
  -10.8823  -18.0454   29.1356 C   0  0  0  0  0  0  0  0  0  0  0  0
  -11.6938  -17.1159   29.2160 O   0  0  0  0  0  0  0  0  0  0  0  0
  -11.2607  -20.0717   29.6017 C   0  0  0  0  0  0  0  0  0  0  0  0
  -11.1590  -20.8823   30.8565 C   0  0  0  0  0  0  0  0  0  0  0  0
  -12.7268  -20.2964   29.4818 C   0  0  0  0  0  0  0  0  0  0  0  0
  -10.8485  -21.3473   28.3155 N   0  0  0  0  0  0  0  0  0  0  0  0
  -10.8875  -22.6972   28.7156 C   0  0  0  0  0  0  0  0  0  0  0  0
  -10.3427  -23.5351   27.5955 C   0  0  0  0  0  0  0  0  0  0  0  0
  -11.4433  -23.1727   26.6593 C   0  0  0  0  0  0  0  0  0  0  0  0
  -11.7396  -21.6839   27.0786 C   0  0  0  0  0  0  0  0  0  0  0  0
   -5.9103  -12.7299   25.1230 H   0  0  0  0  0  0  0  0  0  0  0  0
   -6.9988  -14.0961   24.9917 H   0  0  0  0  0  0  0  0  0  0  0  0
   -7.5823  -12.5820   25.6908 H   0  0  0  0  0  0  0  0  0  0  0  0
   -8.2974  -13.9599   27.7389 H   0  0  0  0  0  0  0  0  0  0  0  0
   -7.0720  -14.5904   28.8341 H   0  0  0  0  0  0  0  0  0  0  0  0
   -7.9491  -16.1873   26.3908 H   0  0  0  0  0  0  0  0  0  0  0  0
   -7.1673  -16.7636   27.8666 H   0  0  0  0  0  0  0  0  0  0  0  0
  -10.0835  -16.1127   27.3318 H   0  0  0  0  0  0  0  0  0  0  0  0
   -9.4989  -15.6600   28.9398 H   0  0  0  0  0  0  0  0  0  0  0  0
  -11.9812  -20.6791   31.5098 H   0  0  0  0  0  0  0  0  0  0  0  0
  -11.3010  -21.9285   30.7083 H   0  0  0  0  0  0  0  0  0  0  0  0
  -10.3121  -20.9174   31.4614 H   0  0  0  0  0  0  0  0  0  0  0  0
  -13.1854  -21.0396   30.1072 H   0  0  0  0  0  0  0  0  0  0  0  0
  -12.9366  -20.7023   28.5524 H   0  0  0  0  0  0  0  0  0  0  0  0
  -13.2939  -19.4119   29.5972 H   0  0  0  0  0  0  0  0  0  0  0  0
  -11.9390  -22.8766   28.9460 H   0  0  0  0  0  0  0  0  0  0  0  0
  -10.3036  -22.9237   29.5285 H   0  0  0  0  0  0  0  0  0  0  0  0
   -9.2980  -23.2935   27.4281 H   0  0  0  0  0  0  0  0  0  0  0  0
  -10.1258  -24.5882   27.6422 H   0  0  0  0  0  0  0  0  0  0  0  0
  -11.1877  -23.3217   25.6252 H   0  0  0  0  0  0  0  0  0  0  0  0
  -12.3155  -23.8141   26.8020 H   0  0  0  0  0  0  0  0  0  0  0  0
  -12.7897  -21.7001   27.2209 H   0  0  0  0  0  0  0  0  0  0  0  0
  -11.6794  -21.0280   26.2249 H   0  0  0  0  0  0  0  0  0  0  0  0
  1  2  1  0
  2  3  1  0
  2  4  1  0
  2  5  1  0
  5  6  1  0
  6  7  1  0
  7  8  1  0
  8  9  1  0
  9 10  2  0
  9 11  1  0
 11 12  1  0
 11 13  1  0
 11 14  1  0
 14 15  1  0
 15 16  1  0
 16 17  1  0
 17 18  1  0
 18 14  1  0
  1 19  1  0
  1 20  1  0
  1 21  1  0
  5 22  1  0
  5 23  1  0
  6 24  1  0
  6 25  1  0
  7 26  1  0
  7 27  1  0
 12 28  1  0
 12 29  1  0
 12 30  1  0
 13 31  1  0
 13 32  1  0
 13 33  1  0
 15 34  1  0
 15 35  1  0
 16 36  1  0
 16 37  1  0
 17 38  1  0
 17 39  1  0
 18 40  1  0
 18 41  1  0
M  END
>  <Energy>  (773) 
304.48668586203763

>  <compound_id>  (773) 
58677

>  <target_id>  (773) 
1

>  <reference_id>  (773) 
53

>  <inspiration_ids>  (773) 
[53, 123]

>  <energy_score>  (773) 
214.32253046433118

>  <distance_score>  (773) 
10.974380720279497

>  <path>  (773) 
/opt/xchem-fragalysis-2/maxwin/BulkDock/SCRATCH/511024/C58677-P53/C58677-P53.minimised.mol

>  <scratch_subdir>  (773) 
/opt/xchem-fragalysis-2/maxwin/BulkDock/SCRATCH/511024/C58677-P53

>  <fragmenstein_runtime>  (773) 
33.07691216468811

>  <fragmenstein_outcome>  (773) 
too moved

>  <fragmenstein_mode>  (773) 
expansion

>  <fragmenstein_error>  (773) 


$$$$
C58677-P123
     RDKit          3D

 41 41  0  0  0  0  0  0  0  0999 V2000
   -5.8565  -13.6469   28.0350 C   0  0  0  0  0  0  0  0  0  0  0  0
   -7.3049  -14.1135   27.8001 C   0  0  0  0  0  0  0  0  0  0  0  0
   -8.1059  -13.4435   28.6707 F   0  0  0  0  0  0  0  0  0  0  0  0
   -7.6501  -13.7143   26.5484 F   0  0  0  0  0  0  0  0  0  0  0  0
   -7.4230  -15.7188   27.9894 C   0  0  0  0  0  0  0  0  0  0  0  0
   -8.7109  -16.7316   27.8247 C   0  0  0  0  0  0  0  0  0  0  0  0
   -8.1976  -18.2193   28.1398 C   0  0  0  0  0  0  0  0  0  0  0  0
   -9.2319  -19.6980   28.3444 O   0  0  0  0  0  0  0  0  0  0  0  0
   -9.8456  -21.4216   28.3077 C   0  0  0  0  0  0  0  0  0  0  0  0
   -8.9738  -22.3364   28.0892 O   0  0  0  0  0  0  0  0  0  0  0  0
  -11.2687  -22.0777   28.6301 C   0  0  0  0  0  0  0  0  0  0  0  0
  -12.1240  -21.2816   29.5308 C   0  0  0  0  0  0  0  0  0  0  0  0
  -11.8675  -22.4956   27.3038 C   0  0  0  0  0  0  0  0  0  0  0  0
  -11.2358  -23.4380   29.3716 N   0  0  0  0  0  0  0  0  0  0  0  0
  -11.4817  -23.6049   30.8142 C   0  0  0  0  0  0  0  0  0  0  0  0
  -10.9133  -24.9683   31.1788 C   0  0  0  0  0  0  0  0  0  0  0  0
  -10.9588  -25.7240   29.8719 C   0  0  0  0  0  0  0  0  0  0  0  0
  -10.6447  -24.6558   28.8319 C   0  0  0  0  0  0  0  0  0  0  0  0
   -5.6784  -12.6624   27.6119 H   0  0  0  0  0  0  0  0  0  0  0  0
   -5.1508  -14.3188   27.5354 H   0  0  0  0  0  0  0  0  0  0  0  0
   -5.6248  -13.6220   29.1036 H   0  0  0  0  0  0  0  0  0  0  0  0
   -6.6694  -16.1379   27.3081 H   0  0  0  0  0  0  0  0  0  0  0  0
   -7.0618  -15.9008   29.0112 H   0  0  0  0  0  0  0  0  0  0  0  0
   -9.5184  -16.4376   28.4967 H   0  0  0  0  0  0  0  0  0  0  0  0
   -9.0858  -16.6714   26.7992 H   0  0  0  0  0  0  0  0  0  0  0  0
   -7.6930  -18.1057   29.0971 H   0  0  0  0  0  0  0  0  0  0  0  0
   -7.4573  -18.4342   27.3647 H   0  0  0  0  0  0  0  0  0  0  0  0
  -12.4840  -20.3897   29.0504 H   0  0  0  0  0  0  0  0  0  0  0  0
  -13.0055  -21.8263   29.8750 H   0  0  0  0  0  0  0  0  0  0  0  0
  -11.5498  -21.0315   30.4250 H   0  0  0  0  0  0  0  0  0  0  0  0
  -11.2869  -23.2612   26.7799 H   0  0  0  0  0  0  0  0  0  0  0  0
  -12.8717  -22.9045   27.4186 H   0  0  0  0  0  0  0  0  0  0  0  0
  -11.8394  -21.6581   26.6225 H   0  0  0  0  0  0  0  0  0  0  0  0
  -12.5577  -23.6075   31.0091 H   0  0  0  0  0  0  0  0  0  0  0  0
  -11.0192  -22.8401   31.4446 H   0  0  0  0  0  0  0  0  0  0  0  0
  -11.4840  -25.4651   31.9684 H   0  0  0  0  0  0  0  0  0  0  0  0
   -9.8744  -24.8703   31.5161 H   0  0  0  0  0  0  0  0  0  0  0  0
  -10.2446  -26.5512   29.8480 H   0  0  0  0  0  0  0  0  0  0  0  0
  -11.9632  -26.1313   29.7066 H   0  0  0  0  0  0  0  0  0  0  0  0
  -11.0527  -24.9735   27.8698 H   0  0  0  0  0  0  0  0  0  0  0  0
   -9.5632  -24.5699   28.7502 H   0  0  0  0  0  0  0  0  0  0  0  0
  1  2  1  0
  2  3  1  0
  2  4  1  0
  2  5  1  0
  5  6  1  0
  6  7  1  0
  7  8  1  0
  8  9  1  0
  9 10  2  0
  9 11  1  0
 11 12  1  0
 11 13  1  0
 11 14  1  0
 14 15  1  0
 15 16  1  0
 16 17  1  0
 17 18  1  0
 18 14  1  0
  1 19  1  0
  1 20  1  0
  1 21  1  0
  5 22  1  0
  5 23  1  0
  6 24  1  0
  6 25  1  0
  7 26  1  0
  7 27  1  0
 12 28  1  0
 12 29  1  0
 12 30  1  0
 13 31  1  0
 13 32  1  0
 13 33  1  0
 15 34  1  0
 15 35  1  0
 16 36  1  0
 16 37  1  0
 17 38  1  0
 17 39  1  0
 18 40  1  0
 18 41  1  0
M  END
>  <Energy>  (774) 
278.82340478418348

>  <compound_id>  (774) 
58677

>  <target_id>  (774) 
1

>  <reference_id>  (774) 
123

>  <inspiration_ids>  (774) 
[53, 123]

>  <energy_score>  (774) 
188.65924938648482

>  <distance_score>  (774) 
10.66661735333591

>  <path>  (774) 
/opt/xchem-fragalysis-2/maxwin/BulkDock/SCRATCH/511024/C58677-P123/C58677-P123.minimised.mol

>  <scratch_subdir>  (774) 
/opt/xchem-fragalysis-2/maxwin/BulkDock/SCRATCH/511024/C58677-P123

>  <fragmenstein_runtime>  (774) 
30.344120264053345

>  <fragmenstein_outcome>  (774) 
too moved

>  <fragmenstein_mode>  (774) 
expansion

>  <fragmenstein_error>  (774) 


$$$$
C58680-P53
     RDKit          3D

 36 36  0  0  0  0  0  0  0  0999 V2000
   -5.7529   -5.1846   32.7879 C   0  0  0  0  0  0  0  0  0  0  0  0
   -5.0206   -6.5083   32.6147 C   0  0  0  0  0  0  0  0  0  0  0  0
   -5.4177   -7.4760   33.6377 O   0  0  0  0  0  0  0  0  0  0  0  0
   -4.8305   -8.8455   33.5048 C   0  0  0  0  0  0  0  0  0  0  0  0
   -5.6907  -10.6914   33.5542 C   0  0  0  0  0  0  0  0  0  0  0  0
   -6.7049  -12.0831   32.6110 C   0  0  0  0  0  0  0  0  0  0  0  0
   -6.4160  -12.0802   31.4900 O   0  0  0  0  0  0  0  0  0  0  0  0
   -7.6762  -13.1966   33.1609 N   0  0  0  0  0  0  0  0  0  0  0  0
   -8.9933  -12.8437   33.1010 C   0  0  0  0  0  0  0  0  0  0  0  0
  -10.1475  -14.3584   33.4753 C   0  0  0  0  0  0  0  0  0  0  0  0
   -9.3025  -15.3986   33.3138 C   0  0  0  0  0  0  0  0  0  0  0  0
   -8.3154  -14.4703   32.4902 C   0  0  0  0  0  0  0  0  0  0  0  0
   -3.6796   -8.8877   34.4042 O   0  0  0  0  0  0  0  0  0  0  0  0
   -2.6703   -7.8918   34.1633 C   0  0  0  0  0  0  0  0  0  0  0  0
   -1.4423   -8.2838   34.9645 C   0  0  0  0  0  0  0  0  0  0  0  0
   -5.4543   -4.4679   32.0179 H   0  0  0  0  0  0  0  0  0  0  0  0
   -5.5418   -4.7589   33.7740 H   0  0  0  0  0  0  0  0  0  0  0  0
   -6.8352   -5.3394   32.7306 H   0  0  0  0  0  0  0  0  0  0  0  0
   -5.2443   -6.9035   31.6195 H   0  0  0  0  0  0  0  0  0  0  0  0
   -3.9487   -6.3172   32.6628 H   0  0  0  0  0  0  0  0  0  0  0  0
   -4.4233   -8.7025   32.4916 H   0  0  0  0  0  0  0  0  0  0  0  0
   -5.5085  -10.5948   32.5051 H   0  0  0  0  0  0  0  0  0  0  0  0
   -4.9077  -11.2652   34.0642 H   0  0  0  0  0  0  0  0  0  0  0  0
   -8.6057  -11.9767   33.6358 H   0  0  0  0  0  0  0  0  0  0  0  0
   -9.3312  -12.1799   32.3267 H   0  0  0  0  0  0  0  0  0  0  0  0
  -11.1337  -14.6095   33.0174 H   0  0  0  0  0  0  0  0  0  0  0  0
  -10.5892  -14.7779   34.3655 H   0  0  0  0  0  0  0  0  0  0  0  0
   -9.1623  -15.9275   34.2827 H   0  0  0  0  0  0  0  0  0  0  0  0
   -9.5567  -16.2205   32.7936 H   0  0  0  0  0  0  0  0  0  0  0  0
   -7.5190  -14.8895   31.8778 H   0  0  0  0  0  0  0  0  0  0  0  0
   -9.0184  -14.2571   31.7507 H   0  0  0  0  0  0  0  0  0  0  0  0
   -2.4111   -7.8606   33.1006 H   0  0  0  0  0  0  0  0  0  0  0  0
   -3.0248   -6.9194   34.5151 H   0  0  0  0  0  0  0  0  0  0  0  0
   -1.6816   -8.3485   36.0311 H   0  0  0  0  0  0  0  0  0  0  0  0
   -1.0832   -9.2721   34.6584 H   0  0  0  0  0  0  0  0  0  0  0  0
   -0.6375   -7.5565   34.8259 H   0  0  0  0  0  0  0  0  0  0  0  0
  1  2  1  0
  2  3  1  0
  3  4  1  0
  4  5  1  0
  5  6  1  0
  6  7  2  0
  6  8  1  0
  8  9  1  0
  9 10  1  0
 10 11  1  0
 11 12  1  0
  4 13  1  0
 13 14  1  0
 14 15  1  0
 12  8  1  0
  1 16  1  0
  1 17  1  0
  1 18  1  0
  2 19  1  0
  2 20  1  0
  4 21  1  0
  5 22  1  0
  5 23  1  0
  9 24  1  0
  9 25  1  0
 10 26  1  0
 10 27  1  0
 11 28  1  0
 11 29  1  0
 12 30  1  0
 12 31  1  0
 14 32  1  0
 14 33  1  0
 15 34  1  0
 15 35  1  0
 15 36  1  0
M  END
>  <Energy>  (775) 
432.19767267117868

>  <compound_id>  (775) 
58680

>  <target_id>  (775) 
1

>  <reference_id>  (775) 
53

>  <inspiration_ids>  (775) 
[53, 123]

>  <energy_score>  (775) 
415.2703794649981

>  <distance_score>  (775) 
12.29035580256967

>  <path>  (775) 
/opt/xchem-fragalysis-2/maxwin/BulkDock/SCRATCH/511024/C58680-P53/C58680-P53.minimised.mol

>  <scratch_subdir>  (775) 
/opt/xchem-fragalysis-2/maxwin/BulkDock/SCRATCH/511024/C58680-P53

>  <fragmenstein_runtime>  (775) 
15.580470561981201

>  <fragmenstein_outcome>  (775) 
too moved

>  <fragmenstein_mode>  (775) 
expansion

>  <fragmenstein_error>  (775) 


$$$$
C58680-P123
     RDKit          3D

 36 36  0  0  0  0  0  0  0  0999 V2000
   -2.7021    1.9920   26.5716 C   0  0  0  0  0  0  0  0  0  0  0  0
   -1.8979    1.5020   27.7584 C   0  0  0  0  0  0  0  0  0  0  0  0
   -1.2680    0.2663   27.4212 O   0  0  0  0  0  0  0  0  0  0  0  0
   -0.6007   -0.3787   28.5286 C   0  0  0  0  0  0  0  0  0  0  0  0
   -1.5427   -1.3956   29.2201 C   0  0  0  0  0  0  0  0  0  0  0  0
   -0.7653   -2.5146   29.9506 C   0  0  0  0  0  0  0  0  0  0  0  0
    0.3197   -2.2638   30.4095 O   0  0  0  0  0  0  0  0  0  0  0  0
   -1.5114   -3.7537   29.9303 N   0  0  0  0  0  0  0  0  0  0  0  0
   -2.4003   -3.8542   31.1522 C   0  0  0  0  0  0  0  0  0  0  0  0
   -3.2625   -5.1232   31.1540 C   0  0  0  0  0  0  0  0  0  0  0  0
   -2.3006   -6.0806   30.5503 C   0  0  0  0  0  0  0  0  0  0  0  0
   -1.1262   -5.1352   30.3726 C   0  0  0  0  0  0  0  0  0  0  0  0
   -0.1058    0.5815   29.4696 O   0  0  0  0  0  0  0  0  0  0  0  0
    1.1546    1.1191   29.0622 C   0  0  0  0  0  0  0  0  0  0  0  0
    1.5242    2.2344   30.0195 C   0  0  0  0  0  0  0  0  0  0  0  0
   -2.0520    2.1385   25.7032 H   0  0  0  0  0  0  0  0  0  0  0  0
   -3.1982    2.9395   26.7984 H   0  0  0  0  0  0  0  0  0  0  0  0
   -3.4573    1.2584   26.2846 H   0  0  0  0  0  0  0  0  0  0  0  0
   -2.5337    1.3748   28.6365 H   0  0  0  0  0  0  0  0  0  0  0  0
   -1.1407    2.2586   27.9859 H   0  0  0  0  0  0  0  0  0  0  0  0
    0.2357   -0.9398   28.0922 H   0  0  0  0  0  0  0  0  0  0  0  0
   -2.1581   -0.8843   29.9682 H   0  0  0  0  0  0  0  0  0  0  0  0
   -2.2034   -1.8435   28.4721 H   0  0  0  0  0  0  0  0  0  0  0  0
   -3.0675   -2.9820   31.1301 H   0  0  0  0  0  0  0  0  0  0  0  0
   -1.8188   -3.7243   32.0818 H   0  0  0  0  0  0  0  0  0  0  0  0
   -3.5810   -5.3958   32.1640 H   0  0  0  0  0  0  0  0  0  0  0  0
   -4.1519   -5.0001   30.5284 H   0  0  0  0  0  0  0  0  0  0  0  0
   -2.6567   -6.4558   29.5892 H   0  0  0  0  0  0  0  0  0  0  0  0
   -2.0546   -6.9256   31.1984 H   0  0  0  0  0  0  0  0  0  0  0  0
   -0.4533   -5.0971   31.2465 H   0  0  0  0  0  0  0  0  0  0  0  0
   -0.4828   -5.5202   29.5700 H   0  0  0  0  0  0  0  0  0  0  0  0
    1.0973    1.5076   28.0397 H   0  0  0  0  0  0  0  0  0  0  0  0
    1.9133    0.3297   29.1009 H   0  0  0  0  0  0  0  0  0  0  0  0
    0.7619    3.0206   30.0070 H   0  0  0  0  0  0  0  0  0  0  0  0
    1.5776    1.8593   31.0469 H   0  0  0  0  0  0  0  0  0  0  0  0
    2.4894    2.6738   29.7531 H   0  0  0  0  0  0  0  0  0  0  0  0
  1  2  1  0
  2  3  1  0
  3  4  1  0
  4  5  1  0
  5  6  1  0
  6  7  2  0
  6  8  1  0
  8  9  1  0
  9 10  1  0
 10 11  1  0
 11 12  1  0
  4 13  1  0
 13 14  1  0
 14 15  1  0
 12  8  1  0
  1 16  1  0
  1 17  1  0
  1 18  1  0
  2 19  1  0
  2 20  1  0
  4 21  1  0
  5 22  1  0
  5 23  1  0
  9 24  1  0
  9 25  1  0
 10 26  1  0
 10 27  1  0
 11 28  1  0
 11 29  1  0
 12 30  1  0
 12 31  1  0
 14 32  1  0
 14 33  1  0
 15 34  1  0
 15 35  1  0
 15 36  1  0
M  END
>  <Energy>  (776) 
40.118299503468243

>  <compound_id>  (776) 
58680

>  <target_id>  (776) 
1

>  <reference_id>  (776) 
123

>  <inspiration_ids>  (776) 
[53, 123]

>  <energy_score>  (776) 
23.191006297290755

>  <distance_score>  (776) 
13.913098888532149

>  <path>  (776) 
/opt/xchem-fragalysis-2/maxwin/BulkDock/SCRATCH/511024/C58680-P123/C58680-P123.minimised.mol

>  <scratch_subdir>  (776) 
/opt/xchem-fragalysis-2/maxwin/BulkDock/SCRATCH/511024/C58680-P123

>  <fragmenstein_runtime>  (776) 
24.173898935317993

>  <fragmenstein_outcome>  (776) 
too moved

>  <fragmenstein_mode>  (776) 
expansion

>  <fragmenstein_error>  (776) 


$$$$
C58684-P53
     RDKit          3D

 38 38  0  0  0  0  0  0  0  0999 V2000
   -0.7615   -2.4838   29.4733 C   0  0  0  0  0  0  0  0  0  0  0  0
   -0.4657   -3.9926   29.5644 C   0  0  0  0  0  0  0  0  0  0  0  0
    1.0441   -4.2320   29.5295 C   0  0  0  0  0  0  0  0  0  0  0  0
   -1.0901   -4.6122   30.8423 C   0  0  0  0  0  0  0  0  0  0  0  0
   -1.4610   -6.1833   30.8998 C   0  0  0  0  0  0  0  0  0  0  0  0
   -2.9208   -7.2951   29.7834 S   0  0  0  0  0  0  0  0  0  0  0  0
   -2.1472   -7.2393   28.5653 O   0  0  0  0  0  0  0  0  0  0  0  0
   -2.5710   -8.1994   30.9289 O   0  0  0  0  0  0  0  0  0  0  0  0
   -5.2667   -8.1323   29.3439 C   0  0  0  0  0  0  0  0  0  0  0  0
   -6.5094   -9.8314   30.0620 C   0  0  0  0  0  0  0  0  0  0  0  0
   -6.3128  -11.5131   31.4729 C   0  0  0  0  0  0  0  0  0  0  0  0
   -7.5462  -12.0280   32.6562 C   0  0  0  0  0  0  0  0  0  0  0  0
   -7.0866  -13.3490   33.2657 C   0  0  0  0  0  0  0  0  0  0  0  0
   -5.9267  -12.6845   33.9531 C   0  0  0  0  0  0  0  0  0  0  0  0
   -5.6471  -11.4865   33.0459 N   0  0  0  0  0  0  0  0  0  0  0  0
   -0.3480   -1.9488   30.3346 H   0  0  0  0  0  0  0  0  0  0  0  0
   -0.3248   -2.0584   28.5635 H   0  0  0  0  0  0  0  0  0  0  0  0
   -1.8406   -2.3017   29.4441 H   0  0  0  0  0  0  0  0  0  0  0  0
   -0.9079   -4.4466   28.6807 H   0  0  0  0  0  0  0  0  0  0  0  0
    1.4738   -3.8597   28.5934 H   0  0  0  0  0  0  0  0  0  0  0  0
    1.5469   -3.7172   30.3555 H   0  0  0  0  0  0  0  0  0  0  0  0
    1.2776   -5.2983   29.6080 H   0  0  0  0  0  0  0  0  0  0  0  0
   -1.9367   -3.9918   31.1452 H   0  0  0  0  0  0  0  0  0  0  0  0
   -0.3684   -4.4667   31.6598 H   0  0  0  0  0  0  0  0  0  0  0  0
   -0.5496   -6.7274   30.6059 H   0  0  0  0  0  0  0  0  0  0  0  0
   -1.6369   -6.4419   31.9530 H   0  0  0  0  0  0  0  0  0  0  0  0
   -5.2289   -8.1828   28.2282 H   0  0  0  0  0  0  0  0  0  0  0  0
   -5.8265   -7.1867   29.1438 H   0  0  0  0  0  0  0  0  0  0  0  0
   -7.5389   -9.7247   29.7029 H   0  0  0  0  0  0  0  0  0  0  0  0
   -6.3769  -10.5024   29.2509 H   0  0  0  0  0  0  0  0  0  0  0  0
   -6.3031  -12.5831   31.1429 H   0  0  0  0  0  0  0  0  0  0  0  0
   -7.6249  -11.6069   33.6546 H   0  0  0  0  0  0  0  0  0  0  0  0
   -8.5556  -11.7833   32.3685 H   0  0  0  0  0  0  0  0  0  0  0  0
   -6.7891  -14.1079   32.5372 H   0  0  0  0  0  0  0  0  0  0  0  0
   -7.8067  -13.7714   33.9726 H   0  0  0  0  0  0  0  0  0  0  0  0
   -6.2069  -12.2929   34.9422 H   0  0  0  0  0  0  0  0  0  0  0  0
   -5.0826  -13.3488   34.1651 H   0  0  0  0  0  0  0  0  0  0  0  0
   -5.8585  -10.5979   33.4934 H   0  0  0  0  0  0  0  0  0  0  0  0
  1  2  1  0
  2  3  1  0
  2  4  1  0
  4  5  1  0
  5  6  1  0
  6  7  2  0
  6  8  2  0
  6  9  1  0
  9 10  1  0
 10 11  1  0
 11 12  1  0
 12 13  1  0
 13 14  1  0
 14 15  1  0
 15 11  1  0
  1 16  1  0
  1 17  1  0
  1 18  1  0
  2 19  1  0
  3 20  1  0
  3 21  1  0
  3 22  1  0
  4 23  1  0
  4 24  1  0
  5 25  1  0
  5 26  1  0
  9 27  1  0
  9 28  1  0
 10 29  1  0
 10 30  1  0
 11 31  1  0
 12 32  1  0
 12 33  1  0
 13 34  1  0
 13 35  1  0
 14 36  1  0
 14 37  1  0
 15 38  1  0
M  END
>  <Energy>  (777) 
720.89261361476076

>  <compound_id>  (777) 
58684

>  <target_id>  (777) 
1

>  <reference_id>  (777) 
53

>  <inspiration_ids>  (777) 
[53, 123]

>  <energy_score>  (777) 
692.0085570451818

>  <distance_score>  (777) 
11.583406922482627

>  <path>  (777) 
/opt/xchem-fragalysis-2/maxwin/BulkDock/SCRATCH/511024/C58684-P53/C58684-P53.minimised.mol

>  <scratch_subdir>  (777) 
/opt/xchem-fragalysis-2/maxwin/BulkDock/SCRATCH/511024/C58684-P53

>  <fragmenstein_runtime>  (777) 
20.84520936012268

>  <fragmenstein_outcome>  (777) 
too moved

>  <fragmenstein_mode>  (777) 
expansion

>  <fragmenstein_error>  (777) 


$$$$
C58684-P123
     RDKit          3D

 38 38  0  0  0  0  0  0  0  0999 V2000
   -8.1888   -1.6711   26.5798 C   0  0  0  0  0  0  0  0  0  0  0  0
   -7.0420   -1.7062   25.4378 C   0  0  0  0  0  0  0  0  0  0  0  0
   -5.2600   -2.2593   26.0818 C   0  0  0  0  0  0  0  0  0  0  0  0
   -7.8516   -2.9698   24.2498 C   0  0  0  0  0  0  0  0  0  0  0  0
   -7.6473   -4.7915   23.8979 C   0  0  0  0  0  0  0  0  0  0  0  0
   -6.6530   -6.7942   24.6946 S   0  0  0  0  0  0  0  0  0  0  0  0
   -5.3895   -6.9653   23.7805 O   0  0  0  0  0  0  0  0  0  0  0  0
   -6.7494   -6.4337   26.0784 O   0  0  0  0  0  0  0  0  0  0  0  0
   -7.1934   -9.1878   24.9551 C   0  0  0  0  0  0  0  0  0  0  0  0
   -6.8657  -11.1433   25.5718 C   0  0  0  0  0  0  0  0  0  0  0  0
   -6.9403  -12.9444   26.5633 C   0  0  0  0  0  0  0  0  0  0  0  0
   -7.2699  -14.7284   26.0612 C   0  0  0  0  0  0  0  0  0  0  0  0
   -8.3570  -15.4697   26.8405 C   0  0  0  0  0  0  0  0  0  0  0  0
   -8.0523  -14.8470   28.1378 C   0  0  0  0  0  0  0  0  0  0  0  0
   -7.9458  -13.5040   27.6082 N   0  0  0  0  0  0  0  0  0  0  0  0
   -9.1820   -1.6230   26.1231 H   0  0  0  0  0  0  0  0  0  0  0  0
   -8.1475   -0.7929   27.2256 H   0  0  0  0  0  0  0  0  0  0  0  0
   -8.1609   -2.5629   27.2145 H   0  0  0  0  0  0  0  0  0  0  0  0
   -7.0589   -0.7059   25.0608 H   0  0  0  0  0  0  0  0  0  0  0  0
   -4.5496   -2.0745   26.9640 H   0  0  0  0  0  0  0  0  0  0  0  0
   -4.3270   -2.0116   25.5017 H   0  0  0  0  0  0  0  0  0  0  0  0
   -5.3689   -2.9751   26.8882 H   0  0  0  0  0  0  0  0  0  0  0  0
   -8.2646   -2.5241   23.3389 H   0  0  0  0  0  0  0  0  0  0  0  0
   -8.8445   -3.0156   24.7404 H   0  0  0  0  0  0  0  0  0  0  0  0
   -7.7685   -4.8752   22.8030 H   0  0  0  0  0  0  0  0  0  0  0  0
   -8.4897   -4.7924   24.6073 H   0  0  0  0  0  0  0  0  0  0  0  0
   -7.3650   -9.8733   23.9750 H   0  0  0  0  0  0  0  0  0  0  0  0
   -7.5145   -9.1906   26.0877 H   0  0  0  0  0  0  0  0  0  0  0  0
   -6.4989  -11.5674   24.6269 H   0  0  0  0  0  0  0  0  0  0  0  0
   -7.9451  -11.1476   25.7020 H   0  0  0  0  0  0  0  0  0  0  0  0
   -6.0779  -12.8183   27.1616 H   0  0  0  0  0  0  0  0  0  0  0  0
   -7.4097  -14.9902   25.0099 H   0  0  0  0  0  0  0  0  0  0  0  0
   -6.4550  -15.3805   26.4058 H   0  0  0  0  0  0  0  0  0  0  0  0
   -8.2208  -16.5558   26.8414 H   0  0  0  0  0  0  0  0  0  0  0  0
   -9.3598  -15.2424   26.4588 H   0  0  0  0  0  0  0  0  0  0  0  0
   -8.8862  -14.9507   28.8376 H   0  0  0  0  0  0  0  0  0  0  0  0
   -7.1510  -15.2040   28.6382 H   0  0  0  0  0  0  0  0  0  0  0  0
   -8.8834  -13.2747   27.2829 H   0  0  0  0  0  0  0  0  0  0  0  0
  1  2  1  0
  2  3  1  0
  2  4  1  0
  4  5  1  0
  5  6  1  0
  6  7  2  0
  6  8  2  0
  6  9  1  0
  9 10  1  0
 10 11  1  0
 11 12  1  0
 12 13  1  0
 13 14  1  0
 14 15  1  0
 15 11  1  0
  1 16  1  0
  1 17  1  0
  1 18  1  0
  2 19  1  0
  3 20  1  0
  3 21  1  0
  3 22  1  0
  4 23  1  0
  4 24  1  0
  5 25  1  0
  5 26  1  0
  9 27  1  0
  9 28  1  0
 10 29  1  0
 10 30  1  0
 11 31  1  0
 12 32  1  0
 12 33  1  0
 13 34  1  0
 13 35  1  0
 14 36  1  0
 14 37  1  0
 15 38  1  0
M  END
>  <Energy>  (778) 
889.81791205543038

>  <compound_id>  (778) 
58684

>  <target_id>  (778) 
1

>  <reference_id>  (778) 
123

>  <inspiration_ids>  (778) 
[53, 123]

>  <energy_score>  (778) 
860.9338554858634

>  <distance_score>  (778) 
11.129329670186438

>  <path>  (778) 
/opt/xchem-fragalysis-2/maxwin/BulkDock/SCRATCH/511024/C58684-P123/C58684-P123.minimised.mol

>  <scratch_subdir>  (778) 
/opt/xchem-fragalysis-2/maxwin/BulkDock/SCRATCH/511024/C58684-P123

>  <fragmenstein_runtime>  (778) 
18.26638913154602

>  <fragmenstein_outcome>  (778) 
too moved

>  <fragmenstein_mode>  (778) 
expansion

>  <fragmenstein_error>  (778) 


$$$$
C58685-P53
     RDKit          3D

 30 30  0  0  0  0  0  0  0  0999 V2000
   -0.4088   -7.5480   25.7794 C   0  0  0  0  0  0  0  0  0  0  0  0
   -0.5736   -8.9439   26.1207 O   0  0  0  0  0  0  0  0  0  0  0  0
   -1.9676   -9.4023   25.8254 C   0  0  0  0  0  0  0  0  0  0  0  0
   -2.6394  -11.2724   26.5931 C   0  0  0  0  0  0  0  0  0  0  0  0
   -1.7462  -11.7992   27.9576 C   0  0  0  0  0  0  0  0  0  0  0  0
   -2.6016  -12.1660   25.4985 F   0  0  0  0  0  0  0  0  0  0  0  0
   -4.3807  -11.9966   27.2252 C   0  0  0  0  0  0  0  0  0  0  0  0
   -6.2689  -12.9410   27.2616 C   0  0  0  0  0  0  0  0  0  0  0  0
   -7.3390  -14.2104   26.6831 C   0  0  0  0  0  0  0  0  0  0  0  0
   -7.6543  -15.4755   27.4778 C   0  0  0  0  0  0  0  0  0  0  0  0
   -7.1124  -15.1077   28.7876 C   0  0  0  0  0  0  0  0  0  0  0  0
   -6.6576  -13.7287   28.6325 N   0  0  0  0  0  0  0  0  0  0  0  0
   -1.0513   -6.9250   26.4082 H   0  0  0  0  0  0  0  0  0  0  0  0
    0.6336   -7.2803   25.9698 H   0  0  0  0  0  0  0  0  0  0  0  0
   -0.6269   -7.3904   24.7197 H   0  0  0  0  0  0  0  0  0  0  0  0
   -1.9766   -9.3547   24.6769 H   0  0  0  0  0  0  0  0  0  0  0  0
   -2.5657   -8.4949   26.0192 H   0  0  0  0  0  0  0  0  0  0  0  0
   -2.3496  -11.9319   28.8557 H   0  0  0  0  0  0  0  0  0  0  0  0
   -0.9668  -11.0850   28.2625 H   0  0  0  0  0  0  0  0  0  0  0  0
   -1.2819  -12.7647   27.7221 H   0  0  0  0  0  0  0  0  0  0  0  0
   -3.7672  -12.7870   26.8175 H   0  0  0  0  0  0  0  0  0  0  0  0
   -4.1530  -11.8758   28.3204 H   0  0  0  0  0  0  0  0  0  0  0  0
   -6.7828  -12.2873   26.5745 H   0  0  0  0  0  0  0  0  0  0  0  0
   -8.3278  -13.7575   26.8588 H   0  0  0  0  0  0  0  0  0  0  0  0
   -7.3005  -14.4901   25.6408 H   0  0  0  0  0  0  0  0  0  0  0  0
   -8.7363  -15.6568   27.5178 H   0  0  0  0  0  0  0  0  0  0  0  0
   -7.2143  -16.3848   27.0565 H   0  0  0  0  0  0  0  0  0  0  0  0
   -6.3144  -15.7907   29.0932 H   0  0  0  0  0  0  0  0  0  0  0  0
   -7.8750  -15.1694   29.5690 H   0  0  0  0  0  0  0  0  0  0  0  0
   -6.0127  -13.5390   29.3952 H   0  0  0  0  0  0  0  0  0  0  0  0
  1  2  1  0
  2  3  1  0
  3  4  1  0
  4  5  1  0
  4  6  1  0
  4  7  1  0
  7  8  1  0
  8  9  1  0
  9 10  1  0
 10 11  1  0
 11 12  1  0
 12  8  1  0
  1 13  1  0
  1 14  1  0
  1 15  1  0
  3 16  1  0
  3 17  1  0
  5 18  1  0
  5 19  1  0
  5 20  1  0
  7 21  1  0
  7 22  1  0
  8 23  1  0
  9 24  1  0
  9 25  1  0
 10 26  1  0
 10 27  1  0
 11 28  1  0
 11 29  1  0
 12 30  1  0
M  END
>  <Energy>  (779) 
480.09018715003214

>  <compound_id>  (779) 
58685

>  <target_id>  (779) 
1

>  <reference_id>  (779) 
53

>  <inspiration_ids>  (779) 
[53, 123]

>  <energy_score>  (779) 
438.10289599177145

>  <distance_score>  (779) 
12.504701919001219

>  <path>  (779) 
/opt/xchem-fragalysis-2/maxwin/BulkDock/SCRATCH/511024/C58685-P53/C58685-P53.minimised.mol

>  <scratch_subdir>  (779) 
/opt/xchem-fragalysis-2/maxwin/BulkDock/SCRATCH/511024/C58685-P53

>  <fragmenstein_runtime>  (779) 
11.971901893615723

>  <fragmenstein_outcome>  (779) 
too moved

>  <fragmenstein_mode>  (779) 
expansion

>  <fragmenstein_error>  (779) 


$$$$
C58685-P123
     RDKit          3D

 30 30  0  0  0  0  0  0  0  0999 V2000
   -1.3659   -0.9741   28.8964 C   0  0  0  0  0  0  0  0  0  0  0  0
   -0.4489   -1.9889   29.2934 O   0  0  0  0  0  0  0  0  0  0  0  0
   -0.9658   -2.8545   30.3121 C   0  0  0  0  0  0  0  0  0  0  0  0
   -0.2209   -4.2310   30.3503 C   0  0  0  0  0  0  0  0  0  0  0  0
    1.2807   -4.0110   30.3929 C   0  0  0  0  0  0  0  0  0  0  0  0
   -0.5138   -4.8535   29.1695 F   0  0  0  0  0  0  0  0  0  0  0  0
   -0.7352   -5.1507   31.5305 C   0  0  0  0  0  0  0  0  0  0  0  0
   -0.4355   -6.7008   31.6541 C   0  0  0  0  0  0  0  0  0  0  0  0
   -0.3553   -7.5823   30.4182 C   0  0  0  0  0  0  0  0  0  0  0  0
   -0.3875   -8.9978   31.0098 C   0  0  0  0  0  0  0  0  0  0  0  0
   -1.2775   -8.8801   32.2373 C   0  0  0  0  0  0  0  0  0  0  0  0
   -1.4588   -7.4325   32.4690 N   0  0  0  0  0  0  0  0  0  0  0  0
   -1.6959   -0.3947   29.7638 H   0  0  0  0  0  0  0  0  0  0  0  0
   -2.2243   -1.4223   28.3888 H   0  0  0  0  0  0  0  0  0  0  0  0
   -0.8580   -0.3060   28.1958 H   0  0  0  0  0  0  0  0  0  0  0  0
   -0.8624   -2.3440   31.2762 H   0  0  0  0  0  0  0  0  0  0  0  0
   -2.0284   -3.0295   30.1246 H   0  0  0  0  0  0  0  0  0  0  0  0
    1.5793   -3.4414   31.2785 H   0  0  0  0  0  0  0  0  0  0  0  0
    1.8056   -4.9722   30.4109 H   0  0  0  0  0  0  0  0  0  0  0  0
    1.6337   -3.4857   29.4995 H   0  0  0  0  0  0  0  0  0  0  0  0
   -1.8126   -5.0320   31.5666 H   0  0  0  0  0  0  0  0  0  0  0  0
   -0.3989   -4.6911   32.4716 H   0  0  0  0  0  0  0  0  0  0  0  0
    0.5214   -6.7801   32.1891 H   0  0  0  0  0  0  0  0  0  0  0  0
    0.5675   -7.4131   29.8543 H   0  0  0  0  0  0  0  0  0  0  0  0
   -1.1940   -7.3842   29.7474 H   0  0  0  0  0  0  0  0  0  0  0  0
   -0.7151   -9.7560   30.2957 H   0  0  0  0  0  0  0  0  0  0  0  0
    0.6275   -9.2725   31.3245 H   0  0  0  0  0  0  0  0  0  0  0  0
   -0.8113   -9.3509   33.1085 H   0  0  0  0  0  0  0  0  0  0  0  0
   -2.2512   -9.3520   32.0801 H   0  0  0  0  0  0  0  0  0  0  0  0
   -2.3915   -7.1650   32.1576 H   0  0  0  0  0  0  0  0  0  0  0  0
  1  2  1  0
  2  3  1  0
  3  4  1  0
  4  5  1  0
  4  6  1  0
  4  7  1  0
  7  8  1  0
  8  9  1  0
  9 10  1  0
 10 11  1  0
 11 12  1  0
 12  8  1  0
  1 13  1  0
  1 14  1  0
  1 15  1  0
  3 16  1  0
  3 17  1  0
  5 18  1  0
  5 19  1  0
  5 20  1  0
  7 21  1  0
  7 22  1  0
  8 23  1  0
  9 24  1  0
  9 25  1  0
 10 26  1  0
 10 27  1  0
 11 28  1  0
 11 29  1  0
 12 30  1  0
M  END
>  <Energy>  (780) 
40.933569286407774

>  <compound_id>  (780) 
58685

>  <target_id>  (780) 
1

>  <reference_id>  (780) 
123

>  <inspiration_ids>  (780) 
[53, 123]

>  <energy_score>  (780) 
-1.0537218718475856

>  <distance_score>  (780) 
15.32542206746843

>  <path>  (780) 
/opt/xchem-fragalysis-2/maxwin/BulkDock/SCRATCH/511024/C58685-P123/C58685-P123.minimised.mol

>  <scratch_subdir>  (780) 
/opt/xchem-fragalysis-2/maxwin/BulkDock/SCRATCH/511024/C58685-P123

>  <fragmenstein_runtime>  (780) 
13.226775884628296

>  <fragmenstein_outcome>  (780) 
too moved

>  <fragmenstein_mode>  (780) 
expansion

>  <fragmenstein_error>  (780) 


$$$$
C58687-P53
     RDKit          3D

 37 37  0  0  0  0  0  0  0  0999 V2000
   -0.3232   -4.2263   28.9709 C   0  0  0  0  0  0  0  0  0  0  0  0
   -0.0519   -3.8742   30.3782 N   0  0  0  0  0  0  0  0  0  0  0  0
   -0.5931   -4.9028   31.4209 C   0  0  0  0  0  0  0  0  0  0  0  0
   -0.1379   -6.4338   31.4193 C   0  0  0  0  0  0  0  0  0  0  0  0
   -0.5100   -7.3797   30.2712 C   0  0  0  0  0  0  0  0  0  0  0  0
   -0.4210   -8.7717   30.8978 C   0  0  0  0  0  0  0  0  0  0  0  0
   -1.0751   -8.5387   32.2366 C   0  0  0  0  0  0  0  0  0  0  0  0
   -0.6160   -7.1982   32.6161 N   0  0  0  0  0  0  0  0  0  0  0  0
   -0.5129   -2.2163   30.7700 S   0  0  0  0  0  0  0  0  0  0  0  0
   -1.8989   -2.0455   30.3842 O   0  0  0  0  0  0  0  0  0  0  0  0
   -0.1457   -2.0330   32.1619 O   0  0  0  0  0  0  0  0  0  0  0  0
    0.5422   -1.0492   29.7482 C   0  0  0  0  0  0  0  0  0  0  0  0
    0.1433   -1.0379   28.2699 C   0  0  0  0  0  0  0  0  0  0  0  0
    0.3065    0.3801   30.2899 C   0  0  0  0  0  0  0  0  0  0  0  0
    2.0149   -1.4355   29.9135 C   0  0  0  0  0  0  0  0  0  0  0  0
    0.6230   -4.2299   28.4225 H   0  0  0  0  0  0  0  0  0  0  0  0
   -1.0002   -3.5207   28.4951 H   0  0  0  0  0  0  0  0  0  0  0  0
   -0.7676   -5.2127   28.8674 H   0  0  0  0  0  0  0  0  0  0  0  0
   -0.2598   -4.5201   32.3953 H   0  0  0  0  0  0  0  0  0  0  0  0
   -1.6786   -4.8541   31.4389 H   0  0  0  0  0  0  0  0  0  0  0  0
    0.9583   -6.4179   31.4860 H   0  0  0  0  0  0  0  0  0  0  0  0
    0.1740   -7.2866   29.4224 H   0  0  0  0  0  0  0  0  0  0  0  0
   -1.5233   -7.1792   29.9280 H   0  0  0  0  0  0  0  0  0  0  0  0
   -0.8945   -9.5541   30.3046 H   0  0  0  0  0  0  0  0  0  0  0  0
    0.6323   -9.0507   31.0295 H   0  0  0  0  0  0  0  0  0  0  0  0
   -2.1625   -8.5339   32.1365 H   0  0  0  0  0  0  0  0  0  0  0  0
   -0.7823   -9.2785   32.9832 H   0  0  0  0  0  0  0  0  0  0  0  0
   -1.3217   -6.6986   33.1545 H   0  0  0  0  0  0  0  0  0  0  0  0
    0.4326   -1.9645   27.7728 H   0  0  0  0  0  0  0  0  0  0  0  0
   -0.9358   -0.9053   28.1403 H   0  0  0  0  0  0  0  0  0  0  0  0
    0.6467   -0.2267   27.7310 H   0  0  0  0  0  0  0  0  0  0  0  0
   -0.7490    0.6601   30.2066 H   0  0  0  0  0  0  0  0  0  0  0  0
    0.5835    0.4547   31.3471 H   0  0  0  0  0  0  0  0  0  0  0  0
    0.8995    1.1183   29.7388 H   0  0  0  0  0  0  0  0  0  0  0  0
    2.2109   -2.4401   29.5254 H   0  0  0  0  0  0  0  0  0  0  0  0
    2.3139   -1.4263   30.9672 H   0  0  0  0  0  0  0  0  0  0  0  0
    2.6672   -0.7391   29.3750 H   0  0  0  0  0  0  0  0  0  0  0  0
  1  2  1  0
  2  3  1  0
  3  4  1  0
  4  5  1  0
  5  6  1  0
  6  7  1  0
  7  8  1  0
  2  9  1  0
  9 10  2  0
  9 11  2  0
  9 12  1  0
 12 13  1  0
 12 14  1  0
 12 15  1  0
  8  4  1  0
  1 16  1  0
  1 17  1  0
  1 18  1  0
  3 19  1  0
  3 20  1  0
  4 21  1  0
  5 22  1  0
  5 23  1  0
  6 24  1  0
  6 25  1  0
  7 26  1  0
  7 27  1  0
  8 28  1  0
 13 29  1  0
 13 30  1  0
 13 31  1  0
 14 32  1  0
 14 33  1  0
 14 34  1  0
 15 35  1  0
 15 36  1  0
 15 37  1  0
M  END
>  <Energy>  (781) 
-3.4737095958952047

>  <compound_id>  (781) 
58687

>  <target_id>  (781) 
1

>  <reference_id>  (781) 
53

>  <inspiration_ids>  (781) 
[53, 123]

>  <energy_score>  (781) 
-38.167712437273394

>  <distance_score>  (781) 
13.737223980156912

>  <path>  (781) 
/opt/xchem-fragalysis-2/maxwin/BulkDock/SCRATCH/511024/C58687-P53/C58687-P53.minimised.mol

>  <scratch_subdir>  (781) 
/opt/xchem-fragalysis-2/maxwin/BulkDock/SCRATCH/511024/C58687-P53

>  <fragmenstein_runtime>  (781) 
33.49293231964111

>  <fragmenstein_outcome>  (781) 
too moved

>  <fragmenstein_mode>  (781) 
expansion

>  <fragmenstein_error>  (781) 


$$$$
C58687-P123
     RDKit          3D

 37 37  0  0  0  0  0  0  0  0999 V2000
   -9.1249   -3.4325   32.1236 C   0  0  0  0  0  0  0  0  0  0  0  0
   -9.1940   -5.7073   32.6277 N   0  0  0  0  0  0  0  0  0  0  0  0
  -10.3652   -7.2053   33.3697 C   0  0  0  0  0  0  0  0  0  0  0  0
  -10.8451   -9.1742   33.9343 C   0  0  0  0  0  0  0  0  0  0  0  0
  -11.3639   -9.9805   35.6709 C   0  0  0  0  0  0  0  0  0  0  0  0
  -12.6631  -10.7233   35.9716 C   0  0  0  0  0  0  0  0  0  0  0  0
  -13.4759   -9.9483   35.0531 C   0  0  0  0  0  0  0  0  0  0  0  0
  -12.4921   -9.9815   34.0050 N   0  0  0  0  0  0  0  0  0  0  0  0
  -10.2152   -3.3556   31.7679 S   0  0  0  0  0  0  0  0  0  0  0  0
  -11.1478   -3.5458   30.5847 O   0  0  0  0  0  0  0  0  0  0  0  0
  -11.0505   -2.6627   32.8496 O   0  0  0  0  0  0  0  0  0  0  0  0
   -9.2076   -1.6241   30.7296 C   0  0  0  0  0  0  0  0  0  0  0  0
   -8.7878   -2.0431   29.2945 C   0  0  0  0  0  0  0  0  0  0  0  0
   -8.2091   -0.8086   31.5776 C   0  0  0  0  0  0  0  0  0  0  0  0
  -10.4590   -0.6900   30.5650 C   0  0  0  0  0  0  0  0  0  0  0  0
   -9.0666   -2.6285   33.2076 H   0  0  0  0  0  0  0  0  0  0  0  0
   -7.9725   -2.8962   32.3807 H   0  0  0  0  0  0  0  0  0  0  0  0
   -8.3612   -3.2737   31.0716 H   0  0  0  0  0  0  0  0  0  0  0  0
   -9.3481   -7.5632   33.4891 H   0  0  0  0  0  0  0  0  0  0  0  0
  -10.6444   -7.3991   32.3241 H   0  0  0  0  0  0  0  0  0  0  0  0
  -10.3923   -9.6112   33.0887 H   0  0  0  0  0  0  0  0  0  0  0  0
  -11.6239   -9.1564   36.3840 H   0  0  0  0  0  0  0  0  0  0  0  0
  -10.5496  -10.4588   36.1711 H   0  0  0  0  0  0  0  0  0  0  0  0
  -12.7088  -11.7891   35.7814 H   0  0  0  0  0  0  0  0  0  0  0  0
  -12.9785  -10.5931   37.0144 H   0  0  0  0  0  0  0  0  0  0  0  0
  -14.3938  -10.4755   34.7768 H   0  0  0  0  0  0  0  0  0  0  0  0
  -13.7413   -8.9622   35.4408 H   0  0  0  0  0  0  0  0  0  0  0  0
  -12.9624   -9.9411   33.1316 H   0  0  0  0  0  0  0  0  0  0  0  0
   -9.5989   -2.5869   28.7994 H   0  0  0  0  0  0  0  0  0  0  0  0
   -8.5806   -1.1726   28.6706 H   0  0  0  0  0  0  0  0  0  0  0  0
   -7.9139   -2.6947   29.2622 H   0  0  0  0  0  0  0  0  0  0  0  0
   -7.2174   -1.2596   31.6217 H   0  0  0  0  0  0  0  0  0  0  0  0
   -8.0939    0.1879   31.1546 H   0  0  0  0  0  0  0  0  0  0  0  0
   -8.5722   -0.6573   32.5993 H   0  0  0  0  0  0  0  0  0  0  0  0
  -11.2541   -1.1642   29.9823 H   0  0  0  0  0  0  0  0  0  0  0  0
  -10.8759   -0.4131   31.5385 H   0  0  0  0  0  0  0  0  0  0  0  0
  -10.1844    0.2346   30.0437 H   0  0  0  0  0  0  0  0  0  0  0  0
  1  2  1  0
  2  3  1  0
  3  4  1  0
  4  5  1  0
  5  6  1  0
  6  7  1  0
  7  8  1  0
  2  9  1  0
  9 10  2  0
  9 11  2  0
  9 12  1  0
 12 13  1  0
 12 14  1  0
 12 15  1  0
  8  4  1  0
  1 16  1  0
  1 17  1  0
  1 18  1  0
  3 19  1  0
  3 20  1  0
  4 21  1  0
  5 22  1  0
  5 23  1  0
  6 24  1  0
  6 25  1  0
  7 26  1  0
  7 27  1  0
  8 28  1  0
 13 29  1  0
 13 30  1  0
 13 31  1  0
 14 32  1  0
 14 33  1  0
 14 34  1  0
 15 35  1  0
 15 36  1  0
 15 37  1  0
M  END
>  <Energy>  (782) 
1438.8850402396288

>  <compound_id>  (782) 
58687

>  <target_id>  (782) 
1

>  <reference_id>  (782) 
123

>  <inspiration_ids>  (782) 
[53, 123]

>  <energy_score>  (782) 
1404.19103739826

>  <distance_score>  (782) 
13.065476093894727

>  <path>  (782) 
/opt/xchem-fragalysis-2/maxwin/BulkDock/SCRATCH/511024/C58687-P123/C58687-P123.minimised.mol

>  <scratch_subdir>  (782) 
/opt/xchem-fragalysis-2/maxwin/BulkDock/SCRATCH/511024/C58687-P123

>  <fragmenstein_runtime>  (782) 
26.273528337478638

>  <fragmenstein_outcome>  (782) 
too moved

>  <fragmenstein_mode>  (782) 
expansion

>  <fragmenstein_error>  (782) 


$$$$
C58692-P53
     RDKit          3D

 36 36  0  0  0  0  0  0  0  0999 V2000
   -5.9696   -3.8892   29.1887 C   0  0  0  0  0  0  0  0  0  0  0  0
   -5.9443   -4.0519   30.7408 C   0  0  0  0  0  0  0  0  0  0  0  0
   -5.1798   -3.2324   31.8048 C   0  0  0  0  0  0  0  0  0  0  0  0
   -6.1126   -5.6445   30.9336 O   0  0  0  0  0  0  0  0  0  0  0  0
   -6.1735   -7.0582   31.9989 C   0  0  0  0  0  0  0  0  0  0  0  0
   -4.7606   -8.5720   32.3315 C   0  0  0  0  0  0  0  0  0  0  0  0
   -2.9055   -8.4209   32.6260 C   0  0  0  0  0  0  0  0  0  0  0  0
   -4.3433   -8.7391   31.0584 F   0  0  0  0  0  0  0  0  0  0  0  0
   -5.6072  -10.3708   32.9730 C   0  0  0  0  0  0  0  0  0  0  0  0
   -6.7272  -11.9986   32.7517 C   0  0  0  0  0  0  0  0  0  0  0  0
   -6.3953  -13.6418   32.7164 C   0  0  0  0  0  0  0  0  0  0  0  0
   -7.5758  -14.5146   33.1111 C   0  0  0  0  0  0  0  0  0  0  0  0
   -8.5630  -13.5391   33.6397 C   0  0  0  0  0  0  0  0  0  0  0  0
   -7.9485  -12.1773   33.6059 N   0  0  0  0  0  0  0  0  0  0  0  0
   -5.9968   -4.8722   28.7317 H   0  0  0  0  0  0  0  0  0  0  0  0
   -6.9296   -3.4683   28.8367 H   0  0  0  0  0  0  0  0  0  0  0  0
   -5.1602   -3.3559   28.7010 H   0  0  0  0  0  0  0  0  0  0  0  0
   -6.9290   -3.5758   30.8868 H   0  0  0  0  0  0  0  0  0  0  0  0
   -4.1631   -2.9586   31.5170 H   0  0  0  0  0  0  0  0  0  0  0  0
   -5.7212   -2.3108   32.0366 H   0  0  0  0  0  0  0  0  0  0  0  0
   -5.1672   -3.7159   32.7799 H   0  0  0  0  0  0  0  0  0  0  0  0
   -6.7617   -6.9697   33.0046 H   0  0  0  0  0  0  0  0  0  0  0  0
   -7.2044   -7.1134   31.8728 H   0  0  0  0  0  0  0  0  0  0  0  0
   -2.6963   -8.5365   33.6972 H   0  0  0  0  0  0  0  0  0  0  0  0
   -2.3196   -9.1255   32.0259 H   0  0  0  0  0  0  0  0  0  0  0  0
   -2.4863   -7.4880   32.2294 H   0  0  0  0  0  0  0  0  0  0  0  0
   -5.3739  -10.7950   32.0008 H   0  0  0  0  0  0  0  0  0  0  0  0
   -5.2549  -10.3235   33.9965 H   0  0  0  0  0  0  0  0  0  0  0  0
   -7.0600  -11.8628   31.7602 H   0  0  0  0  0  0  0  0  0  0  0  0
   -5.6363  -13.9689   33.4392 H   0  0  0  0  0  0  0  0  0  0  0  0
   -6.1295  -13.9565   31.6988 H   0  0  0  0  0  0  0  0  0  0  0  0
   -7.2862  -15.2503   33.8704 H   0  0  0  0  0  0  0  0  0  0  0  0
   -7.9647  -15.0758   32.2552 H   0  0  0  0  0  0  0  0  0  0  0  0
   -9.5032  -13.5856   33.0824 H   0  0  0  0  0  0  0  0  0  0  0  0
   -8.8316  -13.7859   34.6749 H   0  0  0  0  0  0  0  0  0  0  0  0
   -7.6174  -12.1233   34.5647 H   0  0  0  0  0  0  0  0  0  0  0  0
  1  2  1  0
  2  3  1  0
  2  4  1  0
  4  5  1  0
  5  6  1  0
  6  7  1  0
  6  8  1  0
  6  9  1  0
  9 10  1  0
 10 11  1  0
 11 12  1  0
 12 13  1  0
 13 14  1  0
 14 10  1  0
  1 15  1  0
  1 16  1  0
  1 17  1  0
  2 18  1  0
  3 19  1  0
  3 20  1  0
  3 21  1  0
  5 22  1  0
  5 23  1  0
  7 24  1  0
  7 25  1  0
  7 26  1  0
  9 27  1  0
  9 28  1  0
 10 29  1  0
 11 30  1  0
 11 31  1  0
 12 32  1  0
 12 33  1  0
 13 34  1  0
 13 35  1  0
 14 36  1  0
M  END
>  <Energy>  (783) 
556.98134554852481

>  <compound_id>  (783) 
58692

>  <target_id>  (783) 
1

>  <reference_id>  (783) 
53

>  <inspiration_ids>  (783) 
[53, 123]

>  <energy_score>  (783) 
493.7620563478903

>  <distance_score>  (783) 
12.158834819661601

>  <path>  (783) 
/opt/xchem-fragalysis-2/maxwin/BulkDock/SCRATCH/511024/C58692-P53/C58692-P53.minimised.mol

>  <scratch_subdir>  (783) 
/opt/xchem-fragalysis-2/maxwin/BulkDock/SCRATCH/511024/C58692-P53

>  <fragmenstein_runtime>  (783) 
12.656358003616333

>  <fragmenstein_outcome>  (783) 
too moved

>  <fragmenstein_mode>  (783) 
expansion

>  <fragmenstein_error>  (783) 


$$$$
C58692-P123
     RDKit          3D

 36 36  0  0  0  0  0  0  0  0999 V2000
   -8.3594   -1.1921   31.0616 C   0  0  0  0  0  0  0  0  0  0  0  0
   -9.5474   -1.2983   30.1207 C   0  0  0  0  0  0  0  0  0  0  0  0
  -10.2514    0.0433   29.9411 C   0  0  0  0  0  0  0  0  0  0  0  0
   -9.1678   -1.8496   28.8437 O   0  0  0  0  0  0  0  0  0  0  0  0
  -10.2730   -2.6103   28.3081 C   0  0  0  0  0  0  0  0  0  0  0  0
   -9.9823   -3.4125   27.0274 C   0  0  0  0  0  0  0  0  0  0  0  0
   -9.5935   -2.4834   25.8910 C   0  0  0  0  0  0  0  0  0  0  0  0
   -8.8745   -4.1830   27.2075 F   0  0  0  0  0  0  0  0  0  0  0  0
  -11.2229   -4.3405   26.6067 C   0  0  0  0  0  0  0  0  0  0  0  0
  -11.5790   -5.6368   27.4315 C   0  0  0  0  0  0  0  0  0  0  0  0
  -12.1664   -6.7823   26.5714 C   0  0  0  0  0  0  0  0  0  0  0  0
  -12.6548   -7.8344   27.5731 C   0  0  0  0  0  0  0  0  0  0  0  0
  -12.8347   -7.0434   28.8601 C   0  0  0  0  0  0  0  0  0  0  0  0
  -12.6140   -5.6293   28.4719 N   0  0  0  0  0  0  0  0  0  0  0  0
   -7.7449   -0.3235   30.8618 H   0  0  0  0  0  0  0  0  0  0  0  0
   -8.7072   -1.0872   32.0956 H   0  0  0  0  0  0  0  0  0  0  0  0
   -7.7328   -2.0840   31.0044 H   0  0  0  0  0  0  0  0  0  0  0  0
  -10.2487   -1.9818   30.6178 H   0  0  0  0  0  0  0  0  0  0  0  0
  -10.4634    0.5124   30.9067 H   0  0  0  0  0  0  0  0  0  0  0  0
  -11.2023   -0.0818   29.4136 H   0  0  0  0  0  0  0  0  0  0  0  0
   -9.6548    0.7297   29.3362 H   0  0  0  0  0  0  0  0  0  0  0  0
  -11.1068   -1.9262   28.1112 H   0  0  0  0  0  0  0  0  0  0  0  0
  -10.6056   -3.3197   29.0725 H   0  0  0  0  0  0  0  0  0  0  0  0
   -9.2878   -3.0578   25.0096 H   0  0  0  0  0  0  0  0  0  0  0  0
  -10.4498   -1.8670   25.6073 H   0  0  0  0  0  0  0  0  0  0  0  0
   -8.7354   -1.8710   26.1798 H   0  0  0  0  0  0  0  0  0  0  0  0
  -10.9984   -4.6861   25.5881 H   0  0  0  0  0  0  0  0  0  0  0  0
  -12.1194   -3.7128   26.5247 H   0  0  0  0  0  0  0  0  0  0  0  0
  -10.6681   -5.9159   27.9346 H   0  0  0  0  0  0  0  0  0  0  0  0
  -13.0243   -6.4079   25.9951 H   0  0  0  0  0  0  0  0  0  0  0  0
  -11.4621   -7.1934   25.8433 H   0  0  0  0  0  0  0  0  0  0  0  0
  -13.5930   -8.2832   27.2314 H   0  0  0  0  0  0  0  0  0  0  0  0
  -11.9222   -8.6363   27.7080 H   0  0  0  0  0  0  0  0  0  0  0  0
  -13.8353   -7.1720   29.2827 H   0  0  0  0  0  0  0  0  0  0  0  0
  -12.1013   -7.3565   29.6097 H   0  0  0  0  0  0  0  0  0  0  0  0
  -12.3662   -5.0593   29.2751 H   0  0  0  0  0  0  0  0  0  0  0  0
  1  2  1  0
  2  3  1  0
  2  4  1  0
  4  5  1  0
  5  6  1  0
  6  7  1  0
  6  8  1  0
  6  9  1  0
  9 10  1  0
 10 11  1  0
 11 12  1  0
 12 13  1  0
 13 14  1  0
 14 10  1  0
  1 15  1  0
  1 16  1  0
  1 17  1  0
  2 18  1  0
  3 19  1  0
  3 20  1  0
  3 21  1  0
  5 22  1  0
  5 23  1  0
  7 24  1  0
  7 25  1  0
  7 26  1  0
  9 27  1  0
  9 28  1  0
 10 29  1  0
 11 30  1  0
 11 31  1  0
 12 32  1  0
 12 33  1  0
 13 34  1  0
 13 35  1  0
 14 36  1  0
M  END
>  <Energy>  (784) 
47.427710893335743

>  <compound_id>  (784) 
58692

>  <target_id>  (784) 
1

>  <reference_id>  (784) 
123

>  <inspiration_ids>  (784) 
[53, 123]

>  <energy_score>  (784) 
-15.791578307298664

>  <distance_score>  (784) 
14.308568286409578

>  <path>  (784) 
/opt/xchem-fragalysis-2/maxwin/BulkDock/SCRATCH/511024/C58692-P123/C58692-P123.minimised.mol

>  <scratch_subdir>  (784) 
/opt/xchem-fragalysis-2/maxwin/BulkDock/SCRATCH/511024/C58692-P123

>  <fragmenstein_runtime>  (784) 
13.427909135818481

>  <fragmenstein_outcome>  (784) 
too moved

>  <fragmenstein_mode>  (784) 
expansion

>  <fragmenstein_error>  (784) 


$$$$
C36367-P53
     RDKit          3D

 40 41  0  0  0  0  0  0  0  0999 V2000
   -2.5364   -6.8548   29.5427 O   0  0  0  0  0  0  0  0  0  0  0  0
   -2.3887   -6.8568   28.3376 C   0  0  0  0  0  0  0  0  0  0  0  0
   -3.3649   -7.3132   27.1944 N   0  0  0  0  0  0  0  0  0  0  0  0
   -5.0057   -7.8537   27.2647 C   0  0  0  0  0  0  0  0  0  0  0  0
   -6.1578   -9.5530   27.2210 C   0  0  0  0  0  0  0  0  0  0  0  0
   -6.8655   -9.2859   28.5094 C   0  0  0  0  0  0  0  0  0  0  0  0
   -6.5766  -10.5889   29.1675 C   0  0  0  0  0  0  0  0  0  0  0  0
   -6.3311  -12.3837   28.1950 N   0  0  0  0  0  0  0  0  0  0  0  0
   -7.2233  -13.1244   27.2883 C   0  0  0  0  0  0  0  0  0  0  0  0
   -7.1718  -12.9588   26.1703 O   0  0  0  0  0  0  0  0  0  0  0  0
   -8.4459  -14.1448   27.6301 C   0  0  0  0  0  0  0  0  0  0  0  0
   -9.8637  -13.8835   27.5057 C   0  0  0  0  0  0  0  0  0  0  0  0
  -10.5719  -15.0069   27.1173 C   0  0  0  0  0  0  0  0  0  0  0  0
   -9.5969  -15.8600   26.7707 N   0  0  0  0  0  0  0  0  0  0  0  0
   -8.4198  -15.4717   27.2235 N   0  0  0  0  0  0  0  0  0  0  0  0
   -5.3712  -11.5861   27.9464 C   0  0  0  0  0  0  0  0  0  0  0  0
   -0.9979   -6.2130   27.8810 C   0  0  0  0  0  0  0  0  0  0  0  0
   -1.0694   -5.6330   26.6159 O   0  0  0  0  0  0  0  0  0  0  0  0
   -0.5179   -5.1264   28.9386 C   0  0  0  0  0  0  0  0  0  0  0  0
    0.3914   -3.9884   28.4792 C   0  0  0  0  0  0  0  0  0  0  0  0
    0.9248   -3.3146   29.5279 F   0  0  0  0  0  0  0  0  0  0  0  0
   -0.2640   -3.0644   27.7555 F   0  0  0  0  0  0  0  0  0  0  0  0
    1.4193   -4.4661   27.7422 F   0  0  0  0  0  0  0  0  0  0  0  0
   -2.8849   -7.2557   26.2958 H   0  0  0  0  0  0  0  0  0  0  0  0
   -5.3998   -7.1760   26.4898 H   0  0  0  0  0  0  0  0  0  0  0  0
   -5.1087   -7.4129   28.2572 H   0  0  0  0  0  0  0  0  0  0  0  0
   -7.0596   -9.4979   26.5224 H   0  0  0  0  0  0  0  0  0  0  0  0
   -6.2389   -8.5801   28.9363 H   0  0  0  0  0  0  0  0  0  0  0  0
   -7.9419   -9.1380   28.4423 H   0  0  0  0  0  0  0  0  0  0  0  0
   -6.1029  -10.8386   30.1342 H   0  0  0  0  0  0  0  0  0  0  0  0
   -7.4260  -10.2946   29.8523 H   0  0  0  0  0  0  0  0  0  0  0  0
  -10.4250  -13.0123   27.2664 H   0  0  0  0  0  0  0  0  0  0  0  0
  -11.5655  -15.0104   26.7547 H   0  0  0  0  0  0  0  0  0  0  0  0
   -9.6784  -16.7267   26.2607 H   0  0  0  0  0  0  0  0  0  0  0  0
   -4.7625  -11.8963   27.1071 H   0  0  0  0  0  0  0  0  0  0  0  0
   -4.6563  -11.7363   28.8450 H   0  0  0  0  0  0  0  0  0  0  0  0
   -0.2653   -7.0262   27.8452 H   0  0  0  0  0  0  0  0  0  0  0  0
   -1.5768   -4.8128   26.8023 H   0  0  0  0  0  0  0  0  0  0  0  0
   -0.0239   -5.6673   29.7556 H   0  0  0  0  0  0  0  0  0  0  0  0
   -1.3984   -4.6552   29.3932 H   0  0  0  0  0  0  0  0  0  0  0  0
  1  2  2  0
  2  3  1  0
  3  4  1  0
  4  5  1  0
  5  6  1  0
  6  7  1  0
  7  8  1  0
  8  9  1  0
  9 10  2  0
  9 11  1  0
 11 12  1  0
 12 13  2  0
 13 14  1  0
 14 15  1  0
  8 16  1  0
  2 17  1  0
 17 18  1  0
 17 19  1  0
 19 20  1  0
 20 21  1  0
 20 22  1  0
 20 23  1  0
 16  5  1  0
 15 11  2  0
  3 24  1  0
  4 25  1  0
  4 26  1  0
  5 27  1  0
  6 28  1  0
  6 29  1  0
  7 30  1  0
  7 31  1  0
 12 32  1  0
 13 33  1  0
 14 34  1  0
 16 35  1  0
 16 36  1  0
 17 37  1  0
 18 38  1  0
 19 39  1  0
 19 40  1  0
M  END
>  <Energy>  (785) 
692.75818734611005

>  <compound_id>  (785) 
36367

>  <target_id>  (785) 
1

>  <reference_id>  (785) 
53

>  <inspiration_ids>  (785) 
[53, 123]

>  <energy_score>  (785) 
624.4697267416537

>  <distance_score>  (785) 
10.351355933176738

>  <path>  (785) 
/opt/xchem-fragalysis-2/maxwin/BulkDock/SCRATCH/511024/C36367-P53/C36367-P53.minimised.mol

>  <scratch_subdir>  (785) 
/opt/xchem-fragalysis-2/maxwin/BulkDock/SCRATCH/511024/C36367-P53

>  <fragmenstein_runtime>  (785) 
35.301201581954956

>  <fragmenstein_outcome>  (785) 
too moved

>  <fragmenstein_mode>  (785) 
expansion

>  <fragmenstein_error>  (785) 


$$$$
C36367-P123
     RDKit          3D

 40 41  0  0  0  0  0  0  0  0999 V2000
   -8.7962   -5.6253   36.1363 O   0  0  0  0  0  0  0  0  0  0  0  0
   -8.0433   -5.9127   35.2022 C   0  0  0  0  0  0  0  0  0  0  0  0
   -8.4242   -6.8150   33.7496 N   0  0  0  0  0  0  0  0  0  0  0  0
  -10.0161   -7.5261   33.1627 C   0  0  0  0  0  0  0  0  0  0  0  0
  -11.0226   -9.0002   32.2937 C   0  0  0  0  0  0  0  0  0  0  0  0
  -12.4624  -10.0113   33.4707 C   0  0  0  0  0  0  0  0  0  0  0  0
  -13.4657  -11.2660   32.3489 C   0  0  0  0  0  0  0  0  0  0  0  0
  -13.1455  -11.2660   30.0605 N   0  0  0  0  0  0  0  0  0  0  0  0
  -13.3456  -12.5674   29.6028 C   0  0  0  0  0  0  0  0  0  0  0  0
  -12.5762  -13.4629   29.4025 O   0  0  0  0  0  0  0  0  0  0  0  0
  -14.8951  -12.5261   29.3891 C   0  0  0  0  0  0  0  0  0  0  0  0
  -15.6213  -11.9862   28.2882 C   0  0  0  0  0  0  0  0  0  0  0  0
  -16.9063  -12.4527   28.4376 C   0  0  0  0  0  0  0  0  0  0  0  0
  -16.9232  -13.1222   29.6197 N   0  0  0  0  0  0  0  0  0  0  0  0
  -15.7653  -13.0490   30.2728 N   0  0  0  0  0  0  0  0  0  0  0  0
  -11.3235  -10.1541   30.4039 C   0  0  0  0  0  0  0  0  0  0  0  0
   -6.3974   -5.1121   35.4583 C   0  0  0  0  0  0  0  0  0  0  0  0
   -5.3884   -5.8226   36.1533 O   0  0  0  0  0  0  0  0  0  0  0  0
   -5.7394   -3.6801   34.7798 C   0  0  0  0  0  0  0  0  0  0  0  0
   -4.2926   -3.1653   34.9256 C   0  0  0  0  0  0  0  0  0  0  0  0
   -4.2184   -1.8946   34.4003 F   0  0  0  0  0  0  0  0  0  0  0  0
   -3.3692   -3.8614   34.2257 F   0  0  0  0  0  0  0  0  0  0  0  0
   -3.9028   -3.0816   36.2105 F   0  0  0  0  0  0  0  0  0  0  0  0
   -7.6273   -6.8173   33.1368 H   0  0  0  0  0  0  0  0  0  0  0  0
  -10.0142   -7.0211   32.2478 H   0  0  0  0  0  0  0  0  0  0  0  0
  -10.6612   -7.0779   33.8895 H   0  0  0  0  0  0  0  0  0  0  0  0
  -10.2594   -9.5785   32.8612 H   0  0  0  0  0  0  0  0  0  0  0  0
  -12.0909  -10.3445   34.4450 H   0  0  0  0  0  0  0  0  0  0  0  0
  -13.3531   -9.4820   33.8359 H   0  0  0  0  0  0  0  0  0  0  0  0
  -14.3076  -12.0742   32.6092 H   0  0  0  0  0  0  0  0  0  0  0  0
  -14.4357  -10.6411   32.7907 H   0  0  0  0  0  0  0  0  0  0  0  0
  -15.2179  -11.4438   27.4458 H   0  0  0  0  0  0  0  0  0  0  0  0
  -17.7871  -12.3686   27.8182 H   0  0  0  0  0  0  0  0  0  0  0  0
  -17.6978  -13.6053   30.0629 H   0  0  0  0  0  0  0  0  0  0  0  0
  -11.2594   -9.5739   29.4633 H   0  0  0  0  0  0  0  0  0  0  0  0
  -10.3022  -10.5253   30.3530 H   0  0  0  0  0  0  0  0  0  0  0  0
   -6.7831   -4.5719   36.3450 H   0  0  0  0  0  0  0  0  0  0  0  0
   -5.7234   -6.7474   36.1958 H   0  0  0  0  0  0  0  0  0  0  0  0
   -6.3761   -2.8739   35.1783 H   0  0  0  0  0  0  0  0  0  0  0  0
   -5.9026   -3.6476   33.7017 H   0  0  0  0  0  0  0  0  0  0  0  0
  1  2  2  0
  2  3  1  0
  3  4  1  0
  4  5  1  0
  5  6  1  0
  6  7  1  0
  7  8  1  0
  8  9  1  0
  9 10  2  0
  9 11  1  0
 11 12  1  0
 12 13  2  0
 13 14  1  0
 14 15  1  0
  8 16  1  0
  2 17  1  0
 17 18  1  0
 17 19  1  0
 19 20  1  0
 20 21  1  0
 20 22  1  0
 20 23  1  0
 16  5  1  0
 15 11  2  0
  3 24  1  0
  4 25  1  0
  4 26  1  0
  5 27  1  0
  6 28  1  0
  6 29  1  0
  7 30  1  0
  7 31  1  0
 12 32  1  0
 13 33  1  0
 14 34  1  0
 16 35  1  0
 16 36  1  0
 17 37  1  0
 18 38  1  0
 19 39  1  0
 19 40  1  0
M  END
>  <Energy>  (786) 
1104.4930544346191

>  <compound_id>  (786) 
36367

>  <target_id>  (786) 
1

>  <reference_id>  (786) 
123

>  <inspiration_ids>  (786) 
[53, 123]

>  <energy_score>  (786) 
1036.2045938301808

>  <distance_score>  (786) 
13.270678454598539

>  <path>  (786) 
/opt/xchem-fragalysis-2/maxwin/BulkDock/SCRATCH/511024/C36367-P123/C36367-P123.minimised.mol

>  <scratch_subdir>  (786) 
/opt/xchem-fragalysis-2/maxwin/BulkDock/SCRATCH/511024/C36367-P123

>  <fragmenstein_runtime>  (786) 
45.45823669433594

>  <fragmenstein_outcome>  (786) 
too moved

>  <fragmenstein_mode>  (786) 
expansion

>  <fragmenstein_error>  (786) 


$$$$
C47058-P53
     RDKit          3D

 47 49  0  0  0  0  0  0  0  0999 V2000
    0.2619   -6.3423   31.9075 C   0  0  0  0  0  0  0  0  0  0  0  0
   -1.1548   -5.2517   31.6112 S   0  0  0  0  0  0  0  0  0  0  0  0
   -2.5244   -6.5336   31.7141 C   0  0  0  0  0  0  0  0  0  0  0  0
   -3.1053   -7.3102   30.2718 C   0  0  0  0  0  0  0  0  0  0  0  0
   -4.7485   -7.6823   28.9533 C   0  0  0  0  0  0  0  0  0  0  0  0
   -6.1736   -9.1059   29.5627 N   0  0  0  0  0  0  0  0  0  0  0  0
   -6.0013  -10.7067   30.7679 C   0  0  0  0  0  0  0  0  0  0  0  0
   -4.9530  -10.7759   31.2013 O   0  0  0  0  0  0  0  0  0  0  0  0
   -6.9099  -11.8237   31.4752 C   0  0  0  0  0  0  0  0  0  0  0  0
   -7.9907  -11.4123   32.2586 N   0  0  0  0  0  0  0  0  0  0  0  0
   -7.5613  -11.8989   33.3738 N   0  0  0  0  0  0  0  0  0  0  0  0
   -7.5167  -13.1046   32.9759 C   0  0  0  0  0  0  0  0  0  0  0  0
   -6.5520  -13.0299   31.9724 C   0  0  0  0  0  0  0  0  0  0  0  0
   -6.4232  -14.1989   31.1292 C   0  0  0  0  0  0  0  0  0  0  0  0
   -7.6558  -14.8713   31.8153 C   0  0  0  0  0  0  0  0  0  0  0  0
   -8.5707  -14.0991   32.8292 C   0  0  0  0  0  0  0  0  0  0  0  0
   -3.2839   -7.4010   27.6155 C   0  0  0  0  0  0  0  0  0  0  0  0
   -3.7128   -7.5298   26.5138 O   0  0  0  0  0  0  0  0  0  0  0  0
   -1.6125   -7.1834   27.8889 N   0  0  0  0  0  0  0  0  0  0  0  0
   -1.1693   -5.6592   27.8952 C   0  0  0  0  0  0  0  0  0  0  0  0
    0.3253   -5.5171   28.2022 C   0  0  0  0  0  0  0  0  0  0  0  0
    0.8541   -6.7059   27.5139 C   0  0  0  0  0  0  0  0  0  0  0  0
   -0.4304   -7.2245   26.9387 C   0  0  0  0  0  0  0  0  0  0  0  0
    0.2168   -6.7545   32.9189 H   0  0  0  0  0  0  0  0  0  0  0  0
    0.2769   -7.1568   31.1785 H   0  0  0  0  0  0  0  0  0  0  0  0
    1.1860   -5.7668   31.8089 H   0  0  0  0  0  0  0  0  0  0  0  0
   -3.3293   -6.1514   32.3562 H   0  0  0  0  0  0  0  0  0  0  0  0
   -2.0786   -7.3375   32.3197 H   0  0  0  0  0  0  0  0  0  0  0  0
   -2.1125   -7.4302   29.8224 H   0  0  0  0  0  0  0  0  0  0  0  0
   -3.3218   -8.1209   31.0652 H   0  0  0  0  0  0  0  0  0  0  0  0
   -4.5454   -8.2355   29.8180 H   0  0  0  0  0  0  0  0  0  0  0  0
   -7.1031   -9.1310   29.1250 H   0  0  0  0  0  0  0  0  0  0  0  0
   -6.8737  -11.3831   33.9282 H   0  0  0  0  0  0  0  0  0  0  0  0
   -5.4615  -14.7153   31.2757 H   0  0  0  0  0  0  0  0  0  0  0  0
   -6.4841  -14.0256   30.0607 H   0  0  0  0  0  0  0  0  0  0  0  0
   -6.8063  -15.4981   32.1514 H   0  0  0  0  0  0  0  0  0  0  0  0
   -8.0326  -15.8614   32.0861 H   0  0  0  0  0  0  0  0  0  0  0  0
   -9.1603  -14.7647   33.4663 H   0  0  0  0  0  0  0  0  0  0  0  0
   -9.3762  -13.4367   32.6882 H   0  0  0  0  0  0  0  0  0  0  0  0
   -1.5352   -4.9353   28.6042 H   0  0  0  0  0  0  0  0  0  0  0  0
   -1.3434   -5.2549   26.8981 H   0  0  0  0  0  0  0  0  0  0  0  0
    0.5423   -5.5702   29.2686 H   0  0  0  0  0  0  0  0  0  0  0  0
    0.7323   -4.5743   27.8273 H   0  0  0  0  0  0  0  0  0  0  0  0
    1.5958   -6.4791   26.7434 H   0  0  0  0  0  0  0  0  0  0  0  0
    1.2928   -7.4147   28.2245 H   0  0  0  0  0  0  0  0  0  0  0  0
   -0.6973   -6.8228   25.9458 H   0  0  0  0  0  0  0  0  0  0  0  0
   -0.2693   -8.2864   26.7135 H   0  0  0  0  0  0  0  0  0  0  0  0
  1  2  1  0
  2  3  1  0
  3  4  1  0
  4  5  1  0
  5  6  1  0
  6  7  1  0
  7  8  2  0
  7  9  1  0
  9 10  2  0
 10 11  1  0
 11 12  1  0
 12 13  2  0
 13 14  1  0
 14 15  1  0
 15 16  1  0
  5 17  1  0
 17 18  2  0
 17 19  1  0
 19 20  1  0
 20 21  1  0
 21 22  1  0
 22 23  1  0
 13  9  1  0
 23 19  1  0
 16 12  1  0
  1 24  1  0
  1 25  1  0
  1 26  1  0
  3 27  1  0
  3 28  1  0
  4 29  1  0
  4 30  1  0
  5 31  1  0
  6 32  1  0
 11 33  1  0
 14 34  1  0
 14 35  1  0
 15 36  1  0
 15 37  1  0
 16 38  1  0
 16 39  1  0
 20 40  1  0
 20 41  1  0
 21 42  1  0
 21 43  1  0
 22 44  1  0
 22 45  1  0
 23 46  1  0
 23 47  1  0
M  END
>  <Energy>  (787) 
974.78337442662871

>  <compound_id>  (787) 
47058

>  <target_id>  (787) 
1

>  <reference_id>  (787) 
53

>  <inspiration_ids>  (787) 
[53, 123]

>  <energy_score>  (787) 
850.9063537953679

>  <distance_score>  (787) 
11.944883627752144

>  <path>  (787) 
/opt/xchem-fragalysis-2/maxwin/BulkDock/SCRATCH/511024/C47058-P53/C47058-P53.minimised.mol

>  <scratch_subdir>  (787) 
/opt/xchem-fragalysis-2/maxwin/BulkDock/SCRATCH/511024/C47058-P53

>  <fragmenstein_runtime>  (787) 
22.873491048812866

>  <fragmenstein_outcome>  (787) 
too moved

>  <fragmenstein_mode>  (787) 
expansion

>  <fragmenstein_error>  (787) 


$$$$
C47058-P123
     RDKit          3D

 47 49  0  0  0  0  0  0  0  0999 V2000
   -7.0757   -4.0203   30.8159 C   0  0  0  0  0  0  0  0  0  0  0  0
   -7.0223   -4.4451   29.0338 S   0  0  0  0  0  0  0  0  0  0  0  0
   -6.3754   -6.4912   29.1111 C   0  0  0  0  0  0  0  0  0  0  0  0
   -6.5683   -8.5792   28.8274 C   0  0  0  0  0  0  0  0  0  0  0  0
   -7.4967   -9.9087   29.8506 C   0  0  0  0  0  0  0  0  0  0  0  0
   -9.2370  -11.2379   30.0825 N   0  0  0  0  0  0  0  0  0  0  0  0
   -9.4407  -13.5832   29.6750 C   0  0  0  0  0  0  0  0  0  0  0  0
   -8.4756  -14.0880   29.1002 O   0  0  0  0  0  0  0  0  0  0  0  0
  -10.8439  -15.2545   30.4210 C   0  0  0  0  0  0  0  0  0  0  0  0
  -10.4246  -16.0102   32.2085 N   0  0  0  0  0  0  0  0  0  0  0  0
   -9.9737  -17.8732   33.0238 N   0  0  0  0  0  0  0  0  0  0  0  0
  -10.3367  -19.2152   31.5115 C   0  0  0  0  0  0  0  0  0  0  0  0
  -10.8736  -17.5349   30.1384 C   0  0  0  0  0  0  0  0  0  0  0  0
  -11.9393  -18.2728   28.8831 C   0  0  0  0  0  0  0  0  0  0  0  0
  -12.0589  -20.2757   29.2725 C   0  0  0  0  0  0  0  0  0  0  0  0
  -11.1846  -20.7412   30.9251 C   0  0  0  0  0  0  0  0  0  0  0  0
   -5.9727   -8.7949   30.9917 C   0  0  0  0  0  0  0  0  0  0  0  0
   -6.4243   -7.6954   31.2797 O   0  0  0  0  0  0  0  0  0  0  0  0
   -4.2607   -8.8556   31.5203 N   0  0  0  0  0  0  0  0  0  0  0  0
   -4.1510   -9.3460   32.8522 C   0  0  0  0  0  0  0  0  0  0  0  0
   -2.7126   -9.3147   33.5075 C   0  0  0  0  0  0  0  0  0  0  0  0
   -2.0135   -8.3431   32.6609 C   0  0  0  0  0  0  0  0  0  0  0  0
   -3.2726   -7.7845   32.1331 C   0  0  0  0  0  0  0  0  0  0  0  0
   -7.7359   -4.6929   31.3696 H   0  0  0  0  0  0  0  0  0  0  0  0
   -6.0705   -4.0505   31.2419 H   0  0  0  0  0  0  0  0  0  0  0  0
   -7.4686   -3.0063   30.9239 H   0  0  0  0  0  0  0  0  0  0  0  0
   -5.6885   -6.2355   28.3043 H   0  0  0  0  0  0  0  0  0  0  0  0
   -6.7252   -6.1406   30.0793 H   0  0  0  0  0  0  0  0  0  0  0  0
   -5.5202   -8.5179   28.9260 H   0  0  0  0  0  0  0  0  0  0  0  0
   -6.6370   -9.0239   27.8039 H   0  0  0  0  0  0  0  0  0  0  0  0
   -6.6486  -10.5568   29.7289 H   0  0  0  0  0  0  0  0  0  0  0  0
  -10.0011  -10.9204   30.6146 H   0  0  0  0  0  0  0  0  0  0  0  0
  -10.5626  -18.0156   33.8300 H   0  0  0  0  0  0  0  0  0  0  0  0
  -11.3549  -17.8299   28.0961 H   0  0  0  0  0  0  0  0  0  0  0  0
  -12.7283  -17.6065   28.6576 H   0  0  0  0  0  0  0  0  0  0  0  0
  -13.0887  -20.5640   29.3243 H   0  0  0  0  0  0  0  0  0  0  0  0
  -11.6749  -21.0256   28.5602 H   0  0  0  0  0  0  0  0  0  0  0  0
  -10.4602  -21.4808   30.6788 H   0  0  0  0  0  0  0  0  0  0  0  0
  -11.8906  -21.0890   31.6863 H   0  0  0  0  0  0  0  0  0  0  0  0
   -4.9339  -10.0913   32.8783 H   0  0  0  0  0  0  0  0  0  0  0  0
   -4.7184   -8.6658   33.5226 H   0  0  0  0  0  0  0  0  0  0  0  0
   -2.7936   -8.9819   34.5506 H   0  0  0  0  0  0  0  0  0  0  0  0
   -2.1029  -10.2178   33.5142 H   0  0  0  0  0  0  0  0  0  0  0  0
   -1.4128   -8.8273   31.8847 H   0  0  0  0  0  0  0  0  0  0  0  0
   -1.4000   -7.6253   33.2097 H   0  0  0  0  0  0  0  0  0  0  0  0
   -2.9566   -7.1723   31.2837 H   0  0  0  0  0  0  0  0  0  0  0  0
   -3.7625   -7.0735   32.8251 H   0  0  0  0  0  0  0  0  0  0  0  0
  1  2  1  0
  2  3  1  0
  3  4  1  0
  4  5  1  0
  5  6  1  0
  6  7  1  0
  7  8  2  0
  7  9  1  0
  9 10  2  0
 10 11  1  0
 11 12  1  0
 12 13  2  0
 13 14  1  0
 14 15  1  0
 15 16  1  0
  5 17  1  0
 17 18  2  0
 17 19  1  0
 19 20  1  0
 20 21  1  0
 21 22  1  0
 22 23  1  0
 13  9  1  0
 23 19  1  0
 16 12  1  0
  1 24  1  0
  1 25  1  0
  1 26  1  0
  3 27  1  0
  3 28  1  0
  4 29  1  0
  4 30  1  0
  5 31  1  0
  6 32  1  0
 11 33  1  0
 14 34  1  0
 14 35  1  0
 15 36  1  0
 15 37  1  0
 16 38  1  0
 16 39  1  0
 20 40  1  0
 20 41  1  0
 21 42  1  0
 21 43  1  0
 22 44  1  0
 22 45  1  0
 23 46  1  0
 23 47  1  0
M  END
>  <Energy>  (788) 
3235.518780641471

>  <compound_id>  (788) 
47058

>  <target_id>  (788) 
1

>  <reference_id>  (788) 
123

>  <inspiration_ids>  (788) 
[53, 123]

>  <energy_score>  (788) 
3111.6417600102095

>  <distance_score>  (788) 
11.521023734703347

>  <path>  (788) 
/opt/xchem-fragalysis-2/maxwin/BulkDock/SCRATCH/511024/C47058-P123/C47058-P123.minimised.mol

>  <scratch_subdir>  (788) 
/opt/xchem-fragalysis-2/maxwin/BulkDock/SCRATCH/511024/C47058-P123

>  <fragmenstein_runtime>  (788) 
31.755834817886353

>  <fragmenstein_outcome>  (788) 
too moved

>  <fragmenstein_mode>  (788) 
expansion

>  <fragmenstein_error>  (788) 


$$$$
C36369-P53
     RDKit          3D

 49 50  0  0  0  0  0  0  0  0999 V2000
  -14.4211  -17.4720   38.5088 C   0  0  0  0  0  0  0  0  0  0  0  0
  -14.9882  -17.0746   37.1494 C   0  0  0  0  0  0  0  0  0  0  0  0
  -16.2633  -17.8536   36.8428 C   0  0  0  0  0  0  0  0  0  0  0  0
  -15.3631  -15.2805   37.1620 S   0  0  0  0  0  0  0  0  0  0  0  0
  -14.4682  -14.7117   35.6501 C   0  0  0  0  0  0  0  0  0  0  0  0
  -15.2481  -15.1369   34.4107 C   0  0  0  0  0  0  0  0  0  0  0  0
  -12.9315  -15.0201   35.7322 C   0  0  0  0  0  0  0  0  0  0  0  0
  -12.3814  -15.0493   36.8058 O   0  0  0  0  0  0  0  0  0  0  0  0
  -12.3747  -15.1385   34.3614 N   0  0  0  0  0  0  0  0  0  0  0  0
  -12.3763  -16.5098   33.9584 C   0  0  0  0  0  0  0  0  0  0  0  0
  -11.3189  -17.2502   34.7846 C   0  0  0  0  0  0  0  0  0  0  0  0
  -10.0575  -16.5595   34.3526 C   0  0  0  0  0  0  0  0  0  0  0  0
  -10.6277  -15.2370   33.7680 C   0  0  0  0  0  0  0  0  0  0  0  0
   -9.3814  -13.8888   33.0325 C   0  0  0  0  0  0  0  0  0  0  0  0
   -8.6586  -12.1733   32.7223 N   0  0  0  0  0  0  0  0  0  0  0  0
   -7.2449  -12.0519   32.8988 C   0  0  0  0  0  0  0  0  0  0  0  0
   -9.4445  -10.6735   32.2295 C   0  0  0  0  0  0  0  0  0  0  0  0
   -9.4680  -10.5845   31.0006 O   0  0  0  0  0  0  0  0  0  0  0  0
  -10.2161   -9.2483   33.2393 C   0  0  0  0  0  0  0  0  0  0  0  0
   -9.8546   -7.7472   33.3210 C   0  0  0  0  0  0  0  0  0  0  0  0
  -10.9838   -7.0294   33.6018 C   0  0  0  0  0  0  0  0  0  0  0  0
  -11.9349   -7.9693   33.7622 N   0  0  0  0  0  0  0  0  0  0  0  0
  -11.5201   -9.2497   33.6831 N   0  0  0  0  0  0  0  0  0  0  0  0
  -15.1324  -17.2823   39.3209 H   0  0  0  0  0  0  0  0  0  0  0  0
  -14.1838  -18.5417   38.5235 H   0  0  0  0  0  0  0  0  0  0  0  0
  -13.4944  -16.9308   38.7288 H   0  0  0  0  0  0  0  0  0  0  0  0
  -14.2429  -17.3040   36.3845 H   0  0  0  0  0  0  0  0  0  0  0  0
  -16.6749  -17.5838   35.8645 H   0  0  0  0  0  0  0  0  0  0  0  0
  -16.0553  -18.9293   36.8220 H   0  0  0  0  0  0  0  0  0  0  0  0
  -17.0378  -17.6842   37.5995 H   0  0  0  0  0  0  0  0  0  0  0  0
  -14.5175  -13.6155   35.6893 H   0  0  0  0  0  0  0  0  0  0  0  0
  -14.7860  -14.7458   33.4981 H   0  0  0  0  0  0  0  0  0  0  0  0
  -16.2702  -14.7406   34.4378 H   0  0  0  0  0  0  0  0  0  0  0  0
  -15.3191  -16.2229   34.3064 H   0  0  0  0  0  0  0  0  0  0  0  0
  -13.3091  -16.9584   34.3202 H   0  0  0  0  0  0  0  0  0  0  0  0
  -12.5617  -16.5311   32.9011 H   0  0  0  0  0  0  0  0  0  0  0  0
  -11.4772  -17.1245   35.8603 H   0  0  0  0  0  0  0  0  0  0  0  0
  -11.3188  -18.3257   34.6521 H   0  0  0  0  0  0  0  0  0  0  0  0
   -9.4871  -17.0935   33.6415 H   0  0  0  0  0  0  0  0  0  0  0  0
   -9.2779  -16.6192   35.1070 H   0  0  0  0  0  0  0  0  0  0  0  0
  -10.9114  -15.4484   32.7551 H   0  0  0  0  0  0  0  0  0  0  0  0
   -9.6201  -13.4706   33.8826 H   0  0  0  0  0  0  0  0  0  0  0  0
   -8.5499  -14.4654   32.7277 H   0  0  0  0  0  0  0  0  0  0  0  0
   -6.9729  -12.9724   33.2510 H   0  0  0  0  0  0  0  0  0  0  0  0
   -6.7366  -12.0453   31.9434 H   0  0  0  0  0  0  0  0  0  0  0  0
   -6.7719  -11.3057   33.4824 H   0  0  0  0  0  0  0  0  0  0  0  0
   -8.9109   -7.2770   33.0909 H   0  0  0  0  0  0  0  0  0  0  0  0
  -11.1832   -5.9716   33.6808 H   0  0  0  0  0  0  0  0  0  0  0  0
  -12.9160   -7.8168   33.9664 H   0  0  0  0  0  0  0  0  0  0  0  0
  1  2  1  0
  2  3  1  0
  2  4  1  0
  4  5  1  0
  5  6  1  0
  5  7  1  0
  7  8  2  0
  7  9  1  0
  9 10  1  0
 10 11  1  0
 11 12  1  0
 12 13  1  0
 13 14  1  0
 14 15  1  0
 15 16  1  0
 15 17  1  0
 17 18  2  0
 17 19  1  0
 19 20  1  0
 20 21  2  0
 21 22  1  0
 22 23  1  0
 13  9  1  0
 23 19  2  0
  1 24  1  0
  1 25  1  0
  1 26  1  0
  2 27  1  0
  3 28  1  0
  3 29  1  0
  3 30  1  0
  5 31  1  0
  6 32  1  0
  6 33  1  0
  6 34  1  0
 10 35  1  0
 10 36  1  0
 11 37  1  0
 11 38  1  0
 12 39  1  0
 12 40  1  0
 13 41  1  0
 14 42  1  0
 14 43  1  0
 16 44  1  0
 16 45  1  0
 16 46  1  0
 20 47  1  0
 21 48  1  0
 22 49  1  0
M  END
>  <Energy>  (789) 
527.61492780405456

>  <compound_id>  (789) 
36369

>  <target_id>  (789) 
1

>  <reference_id>  (789) 
53

>  <inspiration_ids>  (789) 
[53, 123]

>  <energy_score>  (789) 
382.0601546567915

>  <distance_score>  (789) 
14.064474077020797

>  <path>  (789) 
/opt/xchem-fragalysis-2/maxwin/BulkDock/SCRATCH/511024/C36369-P53/C36369-P53.minimised.mol

>  <scratch_subdir>  (789) 
/opt/xchem-fragalysis-2/maxwin/BulkDock/SCRATCH/511024/C36369-P53

>  <fragmenstein_runtime>  (789) 
33.4028525352478

>  <fragmenstein_outcome>  (789) 
too moved

>  <fragmenstein_mode>  (789) 
expansion

>  <fragmenstein_error>  (789) 


$$$$
C36369-P123
     RDKit          3D

 49 50  0  0  0  0  0  0  0  0999 V2000
   -8.4992  -19.0026   21.4090 C   0  0  0  0  0  0  0  0  0  0  0  0
   -8.4172  -17.7157   20.5941 C   0  0  0  0  0  0  0  0  0  0  0  0
   -8.7642  -17.9847   19.1315 C   0  0  0  0  0  0  0  0  0  0  0  0
   -6.7255  -17.0163   20.6666 S   0  0  0  0  0  0  0  0  0  0  0  0
   -6.7482  -16.2427   22.3321 C   0  0  0  0  0  0  0  0  0  0  0  0
   -5.3700  -15.6553   22.6243 C   0  0  0  0  0  0  0  0  0  0  0  0
   -7.8105  -15.1230   22.4533 C   0  0  0  0  0  0  0  0  0  0  0  0
   -8.1475  -14.4666   21.5035 O   0  0  0  0  0  0  0  0  0  0  0  0
   -8.1691  -15.0105   23.8373 N   0  0  0  0  0  0  0  0  0  0  0  0
   -9.3853  -15.8574   24.1324 C   0  0  0  0  0  0  0  0  0  0  0  0
   -9.6811  -15.9145   25.6125 C   0  0  0  0  0  0  0  0  0  0  0  0
   -9.4118  -14.4876   25.9478 C   0  0  0  0  0  0  0  0  0  0  0  0
   -9.0029  -13.9558   24.5719 C   0  0  0  0  0  0  0  0  0  0  0  0
   -8.1337  -12.6504   24.7084 C   0  0  0  0  0  0  0  0  0  0  0  0
   -8.6668  -11.4874   23.9959 N   0  0  0  0  0  0  0  0  0  0  0  0
   -8.6356  -11.4433   22.5510 C   0  0  0  0  0  0  0  0  0  0  0  0
   -9.2054  -10.4216   24.7041 C   0  0  0  0  0  0  0  0  0  0  0  0
  -10.4034  -10.3996   24.9892 O   0  0  0  0  0  0  0  0  0  0  0  0
   -8.2913   -9.3091   25.0506 C   0  0  0  0  0  0  0  0  0  0  0  0
   -8.4162   -8.4464   26.1791 C   0  0  0  0  0  0  0  0  0  0  0  0
   -7.3360   -7.6054   26.1281 C   0  0  0  0  0  0  0  0  0  0  0  0
   -6.7094   -7.8934   24.9573 N   0  0  0  0  0  0  0  0  0  0  0  0
   -7.2226   -8.9454   24.3093 N   0  0  0  0  0  0  0  0  0  0  0  0
   -9.5078  -19.4266   21.3480 H   0  0  0  0  0  0  0  0  0  0  0  0
   -8.2876  -18.8295   22.4684 H   0  0  0  0  0  0  0  0  0  0  0  0
   -7.8011  -19.7628   21.0403 H   0  0  0  0  0  0  0  0  0  0  0  0
   -9.1339  -16.9870   20.9846 H   0  0  0  0  0  0  0  0  0  0  0  0
   -9.7804  -18.3866   19.0493 H   0  0  0  0  0  0  0  0  0  0  0  0
   -8.7305  -17.0642   18.5379 H   0  0  0  0  0  0  0  0  0  0  0  0
   -8.0847  -18.7144   18.6763 H   0  0  0  0  0  0  0  0  0  0  0  0
   -6.9471  -17.0331   23.0622 H   0  0  0  0  0  0  0  0  0  0  0  0
   -5.3419  -15.2170   23.6277 H   0  0  0  0  0  0  0  0  0  0  0  0
   -5.1132  -14.8550   21.9204 H   0  0  0  0  0  0  0  0  0  0  0  0
   -4.5890  -16.4222   22.5806 H   0  0  0  0  0  0  0  0  0  0  0  0
  -10.2501  -15.5841   23.5028 H   0  0  0  0  0  0  0  0  0  0  0  0
   -9.1478  -16.8770   23.8004 H   0  0  0  0  0  0  0  0  0  0  0  0
  -10.7061  -16.2314   25.8224 H   0  0  0  0  0  0  0  0  0  0  0  0
   -8.9888  -16.5823   26.1353 H   0  0  0  0  0  0  0  0  0  0  0  0
   -8.6090  -14.4036   26.6866 H   0  0  0  0  0  0  0  0  0  0  0  0
  -10.2927  -13.9664   26.3340 H   0  0  0  0  0  0  0  0  0  0  0  0
   -9.8784  -13.6681   23.9644 H   0  0  0  0  0  0  0  0  0  0  0  0
   -7.1120  -12.8115   24.3450 H   0  0  0  0  0  0  0  0  0  0  0  0
   -8.0553  -12.3776   25.7618 H   0  0  0  0  0  0  0  0  0  0  0  0
   -7.6157  -11.6334   22.2065 H   0  0  0  0  0  0  0  0  0  0  0  0
   -9.3145  -12.2019   22.1556 H   0  0  0  0  0  0  0  0  0  0  0  0
   -8.9630  -10.4632   22.1909 H   0  0  0  0  0  0  0  0  0  0  0  0
   -9.1689   -8.5090   26.9535 H   0  0  0  0  0  0  0  0  0  0  0  0
   -6.9917   -6.8494   26.8136 H   0  0  0  0  0  0  0  0  0  0  0  0
   -5.9059   -7.4439   24.5362 H   0  0  0  0  0  0  0  0  0  0  0  0
  1  2  1  0
  2  3  1  0
  2  4  1  0
  4  5  1  0
  5  6  1  0
  5  7  1  0
  7  8  2  0
  7  9  1  0
  9 10  1  0
 10 11  1  0
 11 12  1  0
 12 13  1  0
 13 14  1  0
 14 15  1  0
 15 16  1  0
 15 17  1  0
 17 18  2  0
 17 19  1  0
 19 20  1  0
 20 21  2  0
 21 22  1  0
 22 23  1  0
 13  9  1  0
 23 19  2  0
  1 24  1  0
  1 25  1  0
  1 26  1  0
  2 27  1  0
  3 28  1  0
  3 29  1  0
  3 30  1  0
  5 31  1  0
  6 32  1  0
  6 33  1  0
  6 34  1  0
 10 35  1  0
 10 36  1  0
 11 37  1  0
 11 38  1  0
 12 39  1  0
 12 40  1  0
 13 41  1  0
 14 42  1  0
 14 43  1  0
 16 44  1  0
 16 45  1  0
 16 46  1  0
 20 47  1  0
 21 48  1  0
 22 49  1  0
M  END
>  <Energy>  (790) 
158.41582028069348

>  <compound_id>  (790) 
36369

>  <target_id>  (790) 
1

>  <reference_id>  (790) 
123

>  <inspiration_ids>  (790) 
[53, 123]

>  <energy_score>  (790) 
12.861047133423199

>  <distance_score>  (790) 
14.303877014245426

>  <path>  (790) 
/opt/xchem-fragalysis-2/maxwin/BulkDock/SCRATCH/511024/C36369-P123/C36369-P123.minimised.mol

>  <scratch_subdir>  (790) 
/opt/xchem-fragalysis-2/maxwin/BulkDock/SCRATCH/511024/C36369-P123

>  <fragmenstein_runtime>  (790) 
36.787269830703735

>  <fragmenstein_outcome>  (790) 
too moved

>  <fragmenstein_mode>  (790) 
expansion

>  <fragmenstein_error>  (790) 


$$$$
C36370-P53
     RDKit          3D

 46 47  0  0  0  0  0  0  0  0999 V2000
  -11.3409  -25.5374   36.3399 C   0  0  0  0  0  0  0  0  0  0  0  0
  -12.1999  -23.7563   35.8349 C   0  0  0  0  0  0  0  0  0  0  0  0
  -13.3000  -24.9757   35.1322 C   0  0  0  0  0  0  0  0  0  0  0  0
  -12.1731  -21.5774   36.8129 S   0  0  0  0  0  0  0  0  0  0  0  0
  -10.5999  -19.8242   36.7369 C   0  0  0  0  0  0  0  0  0  0  0  0
   -9.2049  -20.0069   36.0195 C   0  0  0  0  0  0  0  0  0  0  0  0
  -11.1043  -18.1255   36.2174 C   0  0  0  0  0  0  0  0  0  0  0  0
  -12.2669  -17.8334   36.4892 O   0  0  0  0  0  0  0  0  0  0  0  0
   -9.9398  -17.2645   35.3246 N   0  0  0  0  0  0  0  0  0  0  0  0
  -10.0033  -17.5887   34.1242 C   0  0  0  0  0  0  0  0  0  0  0  0
  -11.6475  -16.9115   34.0912 C   0  0  0  0  0  0  0  0  0  0  0  0
  -11.2996  -15.6939   33.4168 C   0  0  0  0  0  0  0  0  0  0  0  0
  -10.0914  -15.5715   34.3115 C   0  0  0  0  0  0  0  0  0  0  0  0
   -8.9600  -14.3238   33.1537 C   0  0  0  0  0  0  0  0  0  0  0  0
   -7.5578  -13.0508   32.9608 N   0  0  0  0  0  0  0  0  0  0  0  0
   -7.2443  -11.7195   33.7105 C   0  0  0  0  0  0  0  0  0  0  0  0
   -7.9725  -11.3123   34.4835 O   0  0  0  0  0  0  0  0  0  0  0  0
   -5.6380  -10.6212   33.6955 C   0  0  0  0  0  0  0  0  0  0  0  0
   -4.8514   -8.9805   33.3346 C   0  0  0  0  0  0  0  0  0  0  0  0
   -3.9180   -8.5909   34.2984 C   0  0  0  0  0  0  0  0  0  0  0  0
   -4.1686   -9.4968   35.2633 N   0  0  0  0  0  0  0  0  0  0  0  0
   -4.9128  -10.5934   34.9306 N   0  0  0  0  0  0  0  0  0  0  0  0
  -11.0878  -25.3676   37.3100 H   0  0  0  0  0  0  0  0  0  0  0  0
  -11.7677  -26.5359   36.0915 H   0  0  0  0  0  0  0  0  0  0  0  0
  -10.3591  -25.9159   36.5062 H   0  0  0  0  0  0  0  0  0  0  0  0
  -11.2339  -23.3519   35.8774 H   0  0  0  0  0  0  0  0  0  0  0  0
  -13.4936  -25.0996   34.0666 H   0  0  0  0  0  0  0  0  0  0  0  0
  -13.1502  -25.7781   35.7941 H   0  0  0  0  0  0  0  0  0  0  0  0
  -13.2542  -26.0919   34.7728 H   0  0  0  0  0  0  0  0  0  0  0  0
  -10.5147  -19.6597   37.8140 H   0  0  0  0  0  0  0  0  0  0  0  0
   -8.5324  -19.2077   36.3520 H   0  0  0  0  0  0  0  0  0  0  0  0
   -8.6406  -20.9331   36.1288 H   0  0  0  0  0  0  0  0  0  0  0  0
   -9.2497  -19.9634   34.9428 H   0  0  0  0  0  0  0  0  0  0  0  0
   -9.0960  -17.1728   33.7248 H   0  0  0  0  0  0  0  0  0  0  0  0
  -10.0020  -18.6705   34.0596 H   0  0  0  0  0  0  0  0  0  0  0  0
  -12.1059  -16.5346   35.0114 H   0  0  0  0  0  0  0  0  0  0  0  0
  -12.4506  -17.4984   33.6995 H   0  0  0  0  0  0  0  0  0  0  0  0
  -10.8480  -15.5077   32.4847 H   0  0  0  0  0  0  0  0  0  0  0  0
  -12.1951  -15.0780   33.3910 H   0  0  0  0  0  0  0  0  0  0  0  0
  -10.8827  -15.0671   34.8592 H   0  0  0  0  0  0  0  0  0  0  0  0
   -9.6297  -13.5401   33.0428 H   0  0  0  0  0  0  0  0  0  0  0  0
   -8.5554  -14.8633   32.3585 H   0  0  0  0  0  0  0  0  0  0  0  0
   -6.8304  -13.1903   32.2584 H   0  0  0  0  0  0  0  0  0  0  0  0
   -4.6629   -8.6173   32.3310 H   0  0  0  0  0  0  0  0  0  0  0  0
   -3.1870   -7.8008   34.3684 H   0  0  0  0  0  0  0  0  0  0  0  0
   -3.7580   -9.4985   36.1881 H   0  0  0  0  0  0  0  0  0  0  0  0
  1  2  1  0
  2  3  1  0
  2  4  1  0
  4  5  1  0
  5  6  1  0
  5  7  1  0
  7  8  2  0
  7  9  1  0
  9 10  1  0
 10 11  1  0
 11 12  1  0
 12 13  1  0
 13 14  1  0
 14 15  1  0
 15 16  1  0
 16 17  2  0
 16 18  1  0
 18 19  1  0
 19 20  2  0
 20 21  1  0
 21 22  1  0
 13  9  1  0
 22 18  2  0
  1 23  1  0
  1 24  1  0
  1 25  1  0
  2 26  1  0
  3 27  1  0
  3 28  1  0
  3 29  1  0
  5 30  1  0
  6 31  1  0
  6 32  1  0
  6 33  1  0
 10 34  1  0
 10 35  1  0
 11 36  1  0
 11 37  1  0
 12 38  1  0
 12 39  1  0
 13 40  1  0
 14 41  1  0
 14 42  1  0
 15 43  1  0
 19 44  1  0
 20 45  1  0
 21 46  1  0
M  END
>  <Energy>  (791) 
1250.513841256708

>  <compound_id>  (791) 
36370

>  <target_id>  (791) 
1

>  <reference_id>  (791) 
53

>  <inspiration_ids>  (791) 
[53, 123]

>  <energy_score>  (791) 
1110.6864376213543

>  <distance_score>  (791) 
13.734767258248556

>  <path>  (791) 
/opt/xchem-fragalysis-2/maxwin/BulkDock/SCRATCH/511024/C36370-P53/C36370-P53.minimised.mol

>  <scratch_subdir>  (791) 
/opt/xchem-fragalysis-2/maxwin/BulkDock/SCRATCH/511024/C36370-P53

>  <fragmenstein_runtime>  (791) 
25.012603044509888

>  <fragmenstein_outcome>  (791) 
too moved

>  <fragmenstein_mode>  (791) 
expansion

>  <fragmenstein_error>  (791) 


$$$$
C36370-P123
     RDKit          3D

 46 47  0  0  0  0  0  0  0  0999 V2000
  -13.2974  -22.1591   34.4363 C   0  0  0  0  0  0  0  0  0  0  0  0
  -13.6183  -20.7718   33.9141 C   0  0  0  0  0  0  0  0  0  0  0  0
  -14.9466  -20.1919   34.3923 C   0  0  0  0  0  0  0  0  0  0  0  0
  -12.2770  -19.4968   34.2709 S   0  0  0  0  0  0  0  0  0  0  0  0
  -10.7951  -20.1651   32.9035 C   0  0  0  0  0  0  0  0  0  0  0  0
  -11.0494  -21.1706   31.7190 C   0  0  0  0  0  0  0  0  0  0  0  0
   -8.9777  -19.8425   33.3780 C   0  0  0  0  0  0  0  0  0  0  0  0
   -8.3270  -20.8793   33.3199 O   0  0  0  0  0  0  0  0  0  0  0  0
   -8.5255  -18.4214   33.6552 N   0  0  0  0  0  0  0  0  0  0  0  0
   -8.5818  -18.1002   35.1818 C   0  0  0  0  0  0  0  0  0  0  0  0
   -8.0653  -16.7553   35.5804 C   0  0  0  0  0  0  0  0  0  0  0  0
   -7.3595  -16.4555   34.3364 C   0  0  0  0  0  0  0  0  0  0  0  0
   -7.1418  -17.8514   33.8284 C   0  0  0  0  0  0  0  0  0  0  0  0
   -6.0572  -17.8583   32.6075 C   0  0  0  0  0  0  0  0  0  0  0  0
   -5.8996  -16.5283   32.0717 N   0  0  0  0  0  0  0  0  0  0  0  0
   -5.6991  -16.0068   30.5001 C   0  0  0  0  0  0  0  0  0  0  0  0
   -5.5534  -16.6546   29.4956 O   0  0  0  0  0  0  0  0  0  0  0  0
   -5.8611  -14.2368   30.2890 C   0  0  0  0  0  0  0  0  0  0  0  0
   -4.9407  -12.9599   30.0296 C   0  0  0  0  0  0  0  0  0  0  0  0
   -5.3094  -12.0146   30.9177 C   0  0  0  0  0  0  0  0  0  0  0  0
   -6.4296  -12.5506   31.5342 N   0  0  0  0  0  0  0  0  0  0  0  0
   -6.8594  -13.7725   31.0269 N   0  0  0  0  0  0  0  0  0  0  0  0
  -12.5396  -22.6542   33.8208 H   0  0  0  0  0  0  0  0  0  0  0  0
  -12.9206  -22.1412   35.4538 H   0  0  0  0  0  0  0  0  0  0  0  0
  -14.1833  -22.8000   34.3859 H   0  0  0  0  0  0  0  0  0  0  0  0
  -13.7363  -20.9151   32.8414 H   0  0  0  0  0  0  0  0  0  0  0  0
  -14.8647  -19.6814   35.3542 H   0  0  0  0  0  0  0  0  0  0  0  0
  -15.7167  -20.9667   34.4657 H   0  0  0  0  0  0  0  0  0  0  0  0
  -15.3141  -19.4447   33.6786 H   0  0  0  0  0  0  0  0  0  0  0  0
  -11.2091  -20.9613   33.4861 H   0  0  0  0  0  0  0  0  0  0  0  0
  -12.1083  -21.3766   31.5602 H   0  0  0  0  0  0  0  0  0  0  0  0
  -10.6143  -22.1541   31.9221 H   0  0  0  0  0  0  0  0  0  0  0  0
  -10.6476  -20.8499   30.7649 H   0  0  0  0  0  0  0  0  0  0  0  0
   -8.0700  -18.8639   35.7802 H   0  0  0  0  0  0  0  0  0  0  0  0
   -9.6333  -17.9486   35.4604 H   0  0  0  0  0  0  0  0  0  0  0  0
   -7.3997  -16.8434   36.4448 H   0  0  0  0  0  0  0  0  0  0  0  0
   -8.8553  -16.0484   35.8381 H   0  0  0  0  0  0  0  0  0  0  0  0
   -6.4966  -15.8380   34.5448 H   0  0  0  0  0  0  0  0  0  0  0  0
   -7.9880  -15.9589   33.5986 H   0  0  0  0  0  0  0  0  0  0  0  0
   -6.6287  -18.5489   34.5123 H   0  0  0  0  0  0  0  0  0  0  0  0
   -6.3045  -18.3675   31.7195 H   0  0  0  0  0  0  0  0  0  0  0  0
   -5.2102  -18.3417   33.0785 H   0  0  0  0  0  0  0  0  0  0  0  0
   -5.9114  -15.7729   32.6653 H   0  0  0  0  0  0  0  0  0  0  0  0
   -3.9274  -12.8874   29.6742 H   0  0  0  0  0  0  0  0  0  0  0  0
   -4.9230  -11.1843   31.4302 H   0  0  0  0  0  0  0  0  0  0  0  0
   -7.0801  -11.9802   32.0325 H   0  0  0  0  0  0  0  0  0  0  0  0
  1  2  1  0
  2  3  1  0
  2  4  1  0
  4  5  1  0
  5  6  1  0
  5  7  1  0
  7  8  2  0
  7  9  1  0
  9 10  1  0
 10 11  1  0
 11 12  1  0
 12 13  1  0
 13 14  1  0
 14 15  1  0
 15 16  1  0
 16 17  2  0
 16 18  1  0
 18 19  1  0
 19 20  2  0
 20 21  1  0
 21 22  1  0
 13  9  1  0
 22 18  2  0
  1 23  1  0
  1 24  1  0
  1 25  1  0
  2 26  1  0
  3 27  1  0
  3 28  1  0
  3 29  1  0
  5 30  1  0
  6 31  1  0
  6 32  1  0
  6 33  1  0
 10 34  1  0
 10 35  1  0
 11 36  1  0
 11 37  1  0
 12 38  1  0
 12 39  1  0
 13 40  1  0
 14 41  1  0
 14 42  1  0
 15 43  1  0
 19 44  1  0
 20 45  1  0
 21 46  1  0
M  END
>  <Energy>  (792) 
360.8772130874699

>  <compound_id>  (792) 
36370

>  <target_id>  (792) 
1

>  <reference_id>  (792) 
123

>  <inspiration_ids>  (792) 
[53, 123]

>  <energy_score>  (792) 
221.04980945214788

>  <distance_score>  (792) 
15.360242895382243

>  <path>  (792) 
/opt/xchem-fragalysis-2/maxwin/BulkDock/SCRATCH/511024/C36370-P123/C36370-P123.minimised.mol

>  <scratch_subdir>  (792) 
/opt/xchem-fragalysis-2/maxwin/BulkDock/SCRATCH/511024/C36370-P123

>  <fragmenstein_runtime>  (792) 
34.99007725715637

>  <fragmenstein_outcome>  (792) 
too moved

>  <fragmenstein_mode>  (792) 
expansion

>  <fragmenstein_error>  (792) 


$$$$
C14114-P53
     RDKit          3D

 46 47  0  0  0  0  0  0  0  0999 V2000
  -10.9573  -16.2684   23.6943 C   0  0  0  0  0  0  0  0  0  0  0  0
  -10.1284  -16.6446   22.4687 C   0  0  0  0  0  0  0  0  0  0  0  0
  -10.2706  -18.1425   22.1719 C   0  0  0  0  0  0  0  0  0  0  0  0
  -10.6076  -15.6805   20.9402 S   0  0  0  0  0  0  0  0  0  0  0  0
  -10.0660  -13.9449   21.3405 C   0  0  0  0  0  0  0  0  0  0  0  0
  -11.2889  -13.0985   21.6699 C   0  0  0  0  0  0  0  0  0  0  0  0
   -9.2359  -13.2766   20.1828 C   0  0  0  0  0  0  0  0  0  0  0  0
   -9.1359  -13.7107   19.1153 O   0  0  0  0  0  0  0  0  0  0  0  0
   -8.5597  -12.0141   20.8986 N   0  0  0  0  0  0  0  0  0  0  0  0
   -7.6245  -11.1638   20.5778 C   0  0  0  0  0  0  0  0  0  0  0  0
   -7.8264   -9.7277   21.4820 C   0  0  0  0  0  0  0  0  0  0  0  0
   -6.6395   -9.5236   20.7055 C   0  0  0  0  0  0  0  0  0  0  0  0
   -6.4571   -8.1831   20.2343 N   0  0  0  0  0  0  0  0  0  0  0  0
   -5.5851   -7.1270   20.7002 C   0  0  0  0  0  0  0  0  0  0  0  0
   -4.8526   -7.0806   21.6459 O   0  0  0  0  0  0  0  0  0  0  0  0
   -5.6821   -5.8798   19.7834 C   0  0  0  0  0  0  0  0  0  0  0  0
   -4.7312   -4.7643   20.1693 C   0  0  0  0  0  0  0  0  0  0  0  0
   -4.8193   -3.3896   20.0576 C   0  0  0  0  0  0  0  0  0  0  0  0
   -3.5955   -2.8955   20.5521 C   0  0  0  0  0  0  0  0  0  0  0  0
   -2.7939   -3.8716   20.9738 N   0  0  0  0  0  0  0  0  0  0  0  0
   -3.4980   -4.9918   20.7335 N   0  0  0  0  0  0  0  0  0  0  0  0
   -7.4524  -10.7056   19.9473 C   0  0  0  0  0  0  0  0  0  0  0  0
  -10.9520  -15.1884   23.8660 H   0  0  0  0  0  0  0  0  0  0  0  0
  -11.9981  -16.5950   23.5995 H   0  0  0  0  0  0  0  0  0  0  0  0
  -10.5330  -16.7162   24.5941 H   0  0  0  0  0  0  0  0  0  0  0  0
   -9.0730  -16.4272   22.6609 H   0  0  0  0  0  0  0  0  0  0  0  0
  -11.3163  -18.4283   22.0143 H   0  0  0  0  0  0  0  0  0  0  0  0
   -9.6974  -18.4260   21.2822 H   0  0  0  0  0  0  0  0  0  0  0  0
   -9.8801  -18.7309   23.0010 H   0  0  0  0  0  0  0  0  0  0  0  0
   -9.4003  -14.0268   22.1975 H   0  0  0  0  0  0  0  0  0  0  0  0
  -11.9293  -12.9662   20.7901 H   0  0  0  0  0  0  0  0  0  0  0  0
  -11.8907  -13.5404   22.4702 H   0  0  0  0  0  0  0  0  0  0  0  0
  -10.9958  -12.0971   22.0031 H   0  0  0  0  0  0  0  0  0  0  0  0
   -6.5553  -12.0048   20.5439 H   0  0  0  0  0  0  0  0  0  0  0  0
   -7.2184  -11.4867   21.6845 H   0  0  0  0  0  0  0  0  0  0  0  0
   -7.7722   -9.8593   22.5627 H   0  0  0  0  0  0  0  0  0  0  0  0
   -8.7373   -9.1841   21.1925 H   0  0  0  0  0  0  0  0  0  0  0  0
   -5.7050   -9.8815   21.1517 H   0  0  0  0  0  0  0  0  0  0  0  0
   -6.8698   -7.9054   19.3500 H   0  0  0  0  0  0  0  0  0  0  0  0
   -6.7122   -5.5080   19.8271 H   0  0  0  0  0  0  0  0  0  0  0  0
   -5.4605   -6.1865   18.7548 H   0  0  0  0  0  0  0  0  0  0  0  0
   -5.6436   -2.8191   19.6543 H   0  0  0  0  0  0  0  0  0  0  0  0
   -3.2533   -1.8710   20.6233 H   0  0  0  0  0  0  0  0  0  0  0  0
   -3.1186   -5.8837   21.0431 H   0  0  0  0  0  0  0  0  0  0  0  0
   -8.2614  -10.1465   19.2130 H   0  0  0  0  0  0  0  0  0  0  0  0
   -6.8487  -11.1447   18.9624 H   0  0  0  0  0  0  0  0  0  0  0  0
  1  2  1  0
  2  3  1  0
  2  4  1  0
  4  5  1  0
  5  6  1  0
  5  7  1  0
  7  8  2  0
  7  9  1  0
  9 10  1  0
 10 11  1  0
 11 12  1  0
 12 13  1  0
 13 14  1  0
 14 15  2  0
 14 16  1  0
 16 17  1  0
 17 18  2  0
 18 19  1  0
 19 20  2  0
 20 21  1  0
 12 22  1  0
 22  9  1  0
 21 17  1  0
  1 23  1  0
  1 24  1  0
  1 25  1  0
  2 26  1  0
  3 27  1  0
  3 28  1  0
  3 29  1  0
  5 30  1  0
  6 31  1  0
  6 32  1  0
  6 33  1  0
 10 34  1  0
 10 35  1  0
 11 36  1  0
 11 37  1  0
 12 38  1  0
 13 39  1  0
 16 40  1  0
 16 41  1  0
 18 42  1  0
 19 43  1  0
 21 44  1  0
 22 45  1  0
 22 46  1  0
M  END
>  <Energy>  (793) 
821.81025623216942

>  <compound_id>  (793) 
14114

>  <target_id>  (793) 
1

>  <reference_id>  (793) 
53

>  <inspiration_ids>  (793) 
[53, 123]

>  <energy_score>  (793) 
726.5049492646791

>  <distance_score>  (793) 
15.549789993679239

>  <path>  (793) 
/opt/xchem-fragalysis-2/maxwin/BulkDock/SCRATCH/511024/C14114-P53/C14114-P53.minimised.mol

>  <scratch_subdir>  (793) 
/opt/xchem-fragalysis-2/maxwin/BulkDock/SCRATCH/511024/C14114-P53

>  <fragmenstein_runtime>  (793) 
46.39687514305115

>  <fragmenstein_outcome>  (793) 
too moved

>  <fragmenstein_mode>  (793) 
expansion

>  <fragmenstein_error>  (793) 


$$$$
C14114-P123
     RDKit          3D

 46 47  0  0  0  0  0  0  0  0999 V2000
  -11.1736  -17.7483   22.5253 C   0  0  0  0  0  0  0  0  0  0  0  0
  -11.1641  -16.2431   22.8264 C   0  0  0  0  0  0  0  0  0  0  0  0
  -10.9552  -16.0239   24.3177 C   0  0  0  0  0  0  0  0  0  0  0  0
   -9.8090  -15.4447   21.8517 S   0  0  0  0  0  0  0  0  0  0  0  0
  -10.3371  -13.6443   21.5939 C   0  0  0  0  0  0  0  0  0  0  0  0
  -11.6037  -13.5567   20.7534 C   0  0  0  0  0  0  0  0  0  0  0  0
   -9.1704  -12.8983   20.8260 C   0  0  0  0  0  0  0  0  0  0  0  0
   -8.4880  -13.4546   20.0788 O   0  0  0  0  0  0  0  0  0  0  0  0
   -9.2782  -11.3445   21.2538 N   0  0  0  0  0  0  0  0  0  0  0  0
   -8.7394  -10.2126   20.8374 C   0  0  0  0  0  0  0  0  0  0  0  0
   -8.6766   -9.1025   22.1441 C   0  0  0  0  0  0  0  0  0  0  0  0
   -7.9357   -8.4220   21.1149 C   0  0  0  0  0  0  0  0  0  0  0  0
   -6.5313   -7.8728   21.3745 N   0  0  0  0  0  0  0  0  0  0  0  0
   -5.5319   -7.8211   20.9621 C   0  0  0  0  0  0  0  0  0  0  0  0
   -5.6434   -8.7740   19.6628 O   0  0  0  0  0  0  0  0  0  0  0  0
   -4.1263   -7.3458   21.1743 C   0  0  0  0  0  0  0  0  0  0  0  0
   -3.9654   -5.9119   21.5771 C   0  0  0  0  0  0  0  0  0  0  0  0
   -2.9613   -5.2931   22.3005 C   0  0  0  0  0  0  0  0  0  0  0  0
   -3.2453   -3.9208   22.2254 C   0  0  0  0  0  0  0  0  0  0  0  0
   -4.3769   -3.6843   21.5593 N   0  0  0  0  0  0  0  0  0  0  0  0
   -4.7556   -4.8941   21.1148 N   0  0  0  0  0  0  0  0  0  0  0  0
   -8.0031  -10.0053   20.6461 C   0  0  0  0  0  0  0  0  0  0  0  0
  -11.3717  -17.9284   21.4624 H   0  0  0  0  0  0  0  0  0  0  0  0
  -10.2172  -18.2213   22.7723 H   0  0  0  0  0  0  0  0  0  0  0  0
  -11.9670  -18.2502   23.0880 H   0  0  0  0  0  0  0  0  0  0  0  0
  -12.1242  -15.8218   22.5172 H   0  0  0  0  0  0  0  0  0  0  0  0
  -10.9845  -14.9584   24.5652 H   0  0  0  0  0  0  0  0  0  0  0  0
  -10.0023  -16.4327   24.6688 H   0  0  0  0  0  0  0  0  0  0  0  0
  -11.7633  -16.4927   24.8796 H   0  0  0  0  0  0  0  0  0  0  0  0
  -10.4994  -13.1736   22.5636 H   0  0  0  0  0  0  0  0  0  0  0  0
  -12.4630  -13.9984   21.2655 H   0  0  0  0  0  0  0  0  0  0  0  0
  -11.4809  -14.0549   19.7851 H   0  0  0  0  0  0  0  0  0  0  0  0
  -11.8544  -12.5106   20.5443 H   0  0  0  0  0  0  0  0  0  0  0  0
   -9.8945   -9.8441   20.9412 H   0  0  0  0  0  0  0  0  0  0  0  0
   -9.3683  -10.0209   19.6485 H   0  0  0  0  0  0  0  0  0  0  0  0
   -9.6390   -8.6612   22.4265 H   0  0  0  0  0  0  0  0  0  0  0  0
   -8.1434   -9.5233   23.0029 H   0  0  0  0  0  0  0  0  0  0  0  0
   -8.4937   -7.7753   20.4238 H   0  0  0  0  0  0  0  0  0  0  0  0
   -7.2280   -7.7036   22.0601 H   0  0  0  0  0  0  0  0  0  0  0  0
   -3.5725   -7.4968   20.2400 H   0  0  0  0  0  0  0  0  0  0  0  0
   -3.6712   -7.9939   21.9316 H   0  0  0  0  0  0  0  0  0  0  0  0
   -2.1053   -5.7655   22.7615 H   0  0  0  0  0  0  0  0  0  0  0  0
   -2.6772   -3.0899   22.6251 H   0  0  0  0  0  0  0  0  0  0  0  0
   -5.5500   -4.9421   20.4837 H   0  0  0  0  0  0  0  0  0  0  0  0
   -7.5576  -10.1977   19.5030 H   0  0  0  0  0  0  0  0  0  0  0  0
   -6.9689  -10.4769   21.1203 H   0  0  0  0  0  0  0  0  0  0  0  0
  1  2  1  0
  2  3  1  0
  2  4  1  0
  4  5  1  0
  5  6  1  0
  5  7  1  0
  7  8  2  0
  7  9  1  0
  9 10  1  0
 10 11  1  0
 11 12  1  0
 12 13  1  0
 13 14  1  0
 14 15  2  0
 14 16  1  0
 16 17  1  0
 17 18  2  0
 18 19  1  0
 19 20  2  0
 20 21  1  0
 12 22  1  0
 22  9  1  0
 21 17  1  0
  1 23  1  0
  1 24  1  0
  1 25  1  0
  2 26  1  0
  3 27  1  0
  3 28  1  0
  3 29  1  0
  5 30  1  0
  6 31  1  0
  6 32  1  0
  6 33  1  0
 10 34  1  0
 10 35  1  0
 11 36  1  0
 11 37  1  0
 12 38  1  0
 13 39  1  0
 16 40  1  0
 16 41  1  0
 18 42  1  0
 19 43  1  0
 21 44  1  0
 22 45  1  0
 22 46  1  0
M  END
>  <Energy>  (794) 
1006.3731545209864

>  <compound_id>  (794) 
14114

>  <target_id>  (794) 
1

>  <reference_id>  (794) 
123

>  <inspiration_ids>  (794) 
[53, 123]

>  <energy_score>  (794) 
911.0678475534971

>  <distance_score>  (794) 
15.478762026770609

>  <path>  (794) 
/opt/xchem-fragalysis-2/maxwin/BulkDock/SCRATCH/511024/C14114-P123/C14114-P123.minimised.mol

>  <scratch_subdir>  (794) 
/opt/xchem-fragalysis-2/maxwin/BulkDock/SCRATCH/511024/C14114-P123

>  <fragmenstein_runtime>  (794) 
51.420748233795166

>  <fragmenstein_outcome>  (794) 
too moved

>  <fragmenstein_mode>  (794) 
expansion

>  <fragmenstein_error>  (794) 


$$$$
C36371-P53
     RDKit          3D

 46 47  0  0  0  0  0  0  0  0999 V2000
   -2.2243    3.2942   27.2186 C   0  0  0  0  0  0  0  0  0  0  0  0
   -1.4475    1.9883   27.3371 C   0  0  0  0  0  0  0  0  0  0  0  0
    0.0076    2.2298   26.9356 C   0  0  0  0  0  0  0  0  0  0  0  0
   -2.2812    0.7623   26.2396 S   0  0  0  0  0  0  0  0  0  0  0  0
   -2.3542   -0.7537   27.2695 C   0  0  0  0  0  0  0  0  0  0  0  0
   -0.9595   -1.2356   27.6669 C   0  0  0  0  0  0  0  0  0  0  0  0
   -3.4043   -1.9542   26.8046 C   0  0  0  0  0  0  0  0  0  0  0  0
   -3.5537   -2.4766   25.7327 O   0  0  0  0  0  0  0  0  0  0  0  0
   -4.0868   -2.2830   28.2514 N   0  0  0  0  0  0  0  0  0  0  0  0
   -3.3589   -3.1412   28.9145 C   0  0  0  0  0  0  0  0  0  0  0  0
   -4.9955   -4.0255   28.3038 C   0  0  0  0  0  0  0  0  0  0  0  0
   -5.9716   -5.6605   28.9130 C   0  0  0  0  0  0  0  0  0  0  0  0
   -5.6965   -7.8552   28.8258 C   0  0  0  0  0  0  0  0  0  0  0  0
   -6.3627   -9.8178   29.2666 N   0  0  0  0  0  0  0  0  0  0  0  0
   -5.3267  -11.5990   29.3312 C   0  0  0  0  0  0  0  0  0  0  0  0
   -4.1338  -11.6364   28.9922 O   0  0  0  0  0  0  0  0  0  0  0  0
   -5.7810  -13.2850   29.9814 C   0  0  0  0  0  0  0  0  0  0  0  0
   -6.8187  -14.0060   29.9170 C   0  0  0  0  0  0  0  0  0  0  0  0
   -6.8492  -14.3537   31.2616 C   0  0  0  0  0  0  0  0  0  0  0  0
   -5.6516  -14.9267   31.3719 N   0  0  0  0  0  0  0  0  0  0  0  0
   -4.9793  -14.2981   30.4990 N   0  0  0  0  0  0  0  0  0  0  0  0
   -5.5782   -3.6130   28.8178 C   0  0  0  0  0  0  0  0  0  0  0  0
   -1.8150    4.0454   27.9021 H   0  0  0  0  0  0  0  0  0  0  0  0
   -3.2779    3.1551   27.4720 H   0  0  0  0  0  0  0  0  0  0  0  0
   -2.1715    3.7100   26.2055 H   0  0  0  0  0  0  0  0  0  0  0  0
   -1.4961    1.6385   28.3730 H   0  0  0  0  0  0  0  0  0  0  0  0
    0.4608    2.9889   27.5830 H   0  0  0  0  0  0  0  0  0  0  0  0
    0.0902    2.5843   25.9021 H   0  0  0  0  0  0  0  0  0  0  0  0
    0.6078    1.3212   27.0349 H   0  0  0  0  0  0  0  0  0  0  0  0
   -2.7748   -0.3670   28.2008 H   0  0  0  0  0  0  0  0  0  0  0  0
   -0.7444   -0.9454   28.7026 H   0  0  0  0  0  0  0  0  0  0  0  0
   -0.1627   -0.8065   27.0579 H   0  0  0  0  0  0  0  0  0  0  0  0
   -0.8518   -2.3184   27.6171 H   0  0  0  0  0  0  0  0  0  0  0  0
   -2.2798   -3.2701   28.7032 H   0  0  0  0  0  0  0  0  0  0  0  0
   -3.2347   -2.8003   29.9872 H   0  0  0  0  0  0  0  0  0  0  0  0
   -5.3566   -5.1535   27.5397 H   0  0  0  0  0  0  0  0  0  0  0  0
   -4.9258   -3.4038   27.1954 H   0  0  0  0  0  0  0  0  0  0  0  0
   -6.8494   -5.4884   28.2507 H   0  0  0  0  0  0  0  0  0  0  0  0
   -5.4505   -8.1138   27.7824 H   0  0  0  0  0  0  0  0  0  0  0  0
   -4.6629   -7.8298   29.0732 H   0  0  0  0  0  0  0  0  0  0  0  0
   -7.3257   -9.9856   29.4927 H   0  0  0  0  0  0  0  0  0  0  0  0
   -7.5550  -13.9156   29.1055 H   0  0  0  0  0  0  0  0  0  0  0  0
   -7.6833  -14.6418   31.8450 H   0  0  0  0  0  0  0  0  0  0  0  0
   -5.2332  -15.6569   31.9472 H   0  0  0  0  0  0  0  0  0  0  0  0
   -5.6553   -3.5112   30.0083 H   0  0  0  0  0  0  0  0  0  0  0  0
   -6.6608   -3.2000   28.5035 H   0  0  0  0  0  0  0  0  0  0  0  0
  1  2  1  0
  2  3  1  0
  2  4  1  0
  4  5  1  0
  5  6  1  0
  5  7  1  0
  7  8  2  0
  7  9  1  0
  9 10  1  0
 10 11  1  0
 11 12  1  0
 12 13  1  0
 13 14  1  0
 14 15  1  0
 15 16  2  0
 15 17  1  0
 17 18  1  0
 18 19  2  0
 19 20  1  0
 20 21  1  0
 12 22  1  0
 22  9  1  0
 21 17  2  0
  1 23  1  0
  1 24  1  0
  1 25  1  0
  2 26  1  0
  3 27  1  0
  3 28  1  0
  3 29  1  0
  5 30  1  0
  6 31  1  0
  6 32  1  0
  6 33  1  0
 10 34  1  0
 10 35  1  0
 11 36  1  0
 11 37  1  0
 12 38  1  0
 13 39  1  0
 13 40  1  0
 14 41  1  0
 18 42  1  0
 19 43  1  0
 20 44  1  0
 22 45  1  0
 22 46  1  0
M  END
>  <Energy>  (795) 
1528.0476157303062

>  <compound_id>  (795) 
36371

>  <target_id>  (795) 
1

>  <reference_id>  (795) 
53

>  <inspiration_ids>  (795) 
[53, 123]

>  <energy_score>  (795) 
1418.3218714520135

>  <distance_score>  (795) 
8.70641434838743

>  <path>  (795) 
/opt/xchem-fragalysis-2/maxwin/BulkDock/SCRATCH/511024/C36371-P53/C36371-P53.minimised.mol

>  <scratch_subdir>  (795) 
/opt/xchem-fragalysis-2/maxwin/BulkDock/SCRATCH/511024/C36371-P53

>  <fragmenstein_runtime>  (795) 
18.930073261260986

>  <fragmenstein_outcome>  (795) 
too moved

>  <fragmenstein_mode>  (795) 
expansion

>  <fragmenstein_error>  (795) 


$$$$
C36371-P123
     RDKit          3D

 46 47  0  0  0  0  0  0  0  0999 V2000
   -1.6569   -0.6215   28.9343 C   0  0  0  0  0  0  0  0  0  0  0  0
   -2.1246   -0.5456   30.3878 C   0  0  0  0  0  0  0  0  0  0  0  0
   -1.0288    0.0710   31.2553 C   0  0  0  0  0  0  0  0  0  0  0  0
   -2.5795   -2.2812   30.9403 S   0  0  0  0  0  0  0  0  0  0  0  0
   -4.2387   -2.0592   31.8019 C   0  0  0  0  0  0  0  0  0  0  0  0
   -3.8074   -2.4580   33.2541 C   0  0  0  0  0  0  0  0  0  0  0  0
   -5.5579   -3.0757   31.6080 C   0  0  0  0  0  0  0  0  0  0  0  0
   -6.5139   -2.7681   32.2952 O   0  0  0  0  0  0  0  0  0  0  0  0
   -5.3395   -4.2710   30.7227 N   0  0  0  0  0  0  0  0  0  0  0  0
   -5.8874   -3.9538   29.0660 C   0  0  0  0  0  0  0  0  0  0  0  0
   -6.3004   -5.5306   28.2219 C   0  0  0  0  0  0  0  0  0  0  0  0
   -6.0761   -7.3574   29.0095 C   0  0  0  0  0  0  0  0  0  0  0  0
   -7.2786   -9.0310   27.9635 C   0  0  0  0  0  0  0  0  0  0  0  0
   -8.0235  -10.2963   26.3534 N   0  0  0  0  0  0  0  0  0  0  0  0
   -9.9334  -10.9137   25.8027 C   0  0  0  0  0  0  0  0  0  0  0  0
  -10.9221  -10.4097   26.4668 O   0  0  0  0  0  0  0  0  0  0  0  0
  -10.4576  -11.6958   24.7280 C   0  0  0  0  0  0  0  0  0  0  0  0
  -11.8362  -12.1326   25.0242 C   0  0  0  0  0  0  0  0  0  0  0  0
  -12.6100  -11.9508   23.9138 C   0  0  0  0  0  0  0  0  0  0  0  0
  -11.7639  -11.3943   23.0158 N   0  0  0  0  0  0  0  0  0  0  0  0
  -10.5229  -11.1424   23.4798 N   0  0  0  0  0  0  0  0  0  0  0  0
   -6.3637   -5.7954   30.4446 C   0  0  0  0  0  0  0  0  0  0  0  0
   -0.7491   -1.2271   28.8313 H   0  0  0  0  0  0  0  0  0  0  0  0
   -1.4283    0.3811   28.5559 H   0  0  0  0  0  0  0  0  0  0  0  0
   -2.4241   -1.0468   28.2792 H   0  0  0  0  0  0  0  0  0  0  0  0
   -3.0090    0.0910   30.4514 H   0  0  0  0  0  0  0  0  0  0  0  0
   -0.7776    1.0774   30.9042 H   0  0  0  0  0  0  0  0  0  0  0  0
   -0.1123   -0.5288   31.2345 H   0  0  0  0  0  0  0  0  0  0  0  0
   -1.3590    0.1558   32.2961 H   0  0  0  0  0  0  0  0  0  0  0  0
   -4.4902   -1.0162   31.9798 H   0  0  0  0  0  0  0  0  0  0  0  0
   -3.5211   -3.5149   33.3224 H   0  0  0  0  0  0  0  0  0  0  0  0
   -4.6372   -2.3100   33.9561 H   0  0  0  0  0  0  0  0  0  0  0  0
   -2.9803   -1.8392   33.6235 H   0  0  0  0  0  0  0  0  0  0  0  0
   -5.1702   -3.3361   28.5207 H   0  0  0  0  0  0  0  0  0  0  0  0
   -6.8316   -3.3881   29.1244 H   0  0  0  0  0  0  0  0  0  0  0  0
   -5.9162   -5.7219   27.2467 H   0  0  0  0  0  0  0  0  0  0  0  0
   -7.3341   -5.3030   27.8607 H   0  0  0  0  0  0  0  0  0  0  0  0
   -6.9252   -6.8395   29.2601 H   0  0  0  0  0  0  0  0  0  0  0  0
   -6.3161   -9.2686   27.5571 H   0  0  0  0  0  0  0  0  0  0  0  0
   -7.5748   -9.5113   28.8959 H   0  0  0  0  0  0  0  0  0  0  0  0
   -7.3520  -10.8244   25.8196 H   0  0  0  0  0  0  0  0  0  0  0  0
  -12.1060  -12.5120   25.9907 H   0  0  0  0  0  0  0  0  0  0  0  0
  -13.6519  -12.1377   23.6999 H   0  0  0  0  0  0  0  0  0  0  0  0
  -11.9805  -11.0905   22.0727 H   0  0  0  0  0  0  0  0  0  0  0  0
   -6.5626   -6.2964   31.4575 H   0  0  0  0  0  0  0  0  0  0  0  0
   -6.6759   -4.7444   30.4023 H   0  0  0  0  0  0  0  0  0  0  0  0
  1  2  1  0
  2  3  1  0
  2  4  1  0
  4  5  1  0
  5  6  1  0
  5  7  1  0
  7  8  2  0
  7  9  1  0
  9 10  1  0
 10 11  1  0
 11 12  1  0
 12 13  1  0
 13 14  1  0
 14 15  1  0
 15 16  2  0
 15 17  1  0
 17 18  1  0
 18 19  2  0
 19 20  1  0
 20 21  1  0
 12 22  1  0
 22  9  1  0
 21 17  2  0
  1 23  1  0
  1 24  1  0
  1 25  1  0
  2 26  1  0
  3 27  1  0
  3 28  1  0
  3 29  1  0
  5 30  1  0
  6 31  1  0
  6 32  1  0
  6 33  1  0
 10 34  1  0
 10 35  1  0
 11 36  1  0
 11 37  1  0
 12 38  1  0
 13 39  1  0
 13 40  1  0
 14 41  1  0
 18 42  1  0
 19 43  1  0
 20 44  1  0
 22 45  1  0
 22 46  1  0
M  END
>  <Energy>  (796) 
1246.964529541603

>  <compound_id>  (796) 
36371

>  <target_id>  (796) 
1

>  <reference_id>  (796) 
123

>  <inspiration_ids>  (796) 
[53, 123]

>  <energy_score>  (796) 
1137.2387852633244

>  <distance_score>  (796) 
11.635888520721666

>  <path>  (796) 
/opt/xchem-fragalysis-2/maxwin/BulkDock/SCRATCH/511024/C36371-P123/C36371-P123.minimised.mol

>  <scratch_subdir>  (796) 
/opt/xchem-fragalysis-2/maxwin/BulkDock/SCRATCH/511024/C36371-P123

>  <fragmenstein_runtime>  (796) 
29.586905479431152

>  <fragmenstein_outcome>  (796) 
too moved

>  <fragmenstein_mode>  (796) 
expansion

>  <fragmenstein_error>  (796) 


$$$$
C36372-P53
     RDKit          3D

 47 48  0  0  0  0  0  0  0  0999 V2000
  -11.5172   -2.0642   31.6066 C   0  0  0  0  0  0  0  0  0  0  0  0
  -12.7002   -1.5441   30.7724 C   0  0  0  0  0  0  0  0  0  0  0  0
  -12.0728   -0.4104   29.8930 C   0  0  0  0  0  0  0  0  0  0  0  0
  -13.4716   -2.5967   30.0149 N   0  0  0  0  0  0  0  0  0  0  0  0
  -14.2781   -2.0343   28.9337 C   0  0  0  0  0  0  0  0  0  0  0  0
  -14.1937   -3.7896   30.6703 C   0  0  0  0  0  0  0  0  0  0  0  0
  -13.9407   -5.3795   29.9735 C   0  0  0  0  0  0  0  0  0  0  0  0
  -14.7269   -5.9532   29.2712 O   0  0  0  0  0  0  0  0  0  0  0  0
  -12.6238   -5.7923   30.4696 N   0  0  0  0  0  0  0  0  0  0  0  0
  -11.5888   -7.3052   30.1204 C   0  0  0  0  0  0  0  0  0  0  0  0
  -12.0068   -9.5058   29.4951 C   0  0  0  0  0  0  0  0  0  0  0  0
  -11.2563   -9.6866   28.1403 C   0  0  0  0  0  0  0  0  0  0  0  0
  -12.0258  -10.8873   27.4171 C   0  0  0  0  0  0  0  0  0  0  0  0
  -12.9564  -11.4894   28.5782 C   0  0  0  0  0  0  0  0  0  0  0  0
  -12.3866  -11.5246   29.9823 N   0  0  0  0  0  0  0  0  0  0  0  0
  -13.5833  -12.4609   31.1405 C   0  0  0  0  0  0  0  0  0  0  0  0
  -14.5635  -12.0620   31.8697 O   0  0  0  0  0  0  0  0  0  0  0  0
  -13.0839  -14.2454   31.3235 C   0  0  0  0  0  0  0  0  0  0  0  0
  -13.0434  -14.7992   32.7275 C   0  0  0  0  0  0  0  0  0  0  0  0
  -13.3414  -16.0782   32.4415 C   0  0  0  0  0  0  0  0  0  0  0  0
  -12.9748  -16.2034   31.1193 N   0  0  0  0  0  0  0  0  0  0  0  0
  -12.8370  -15.1557   30.4038 N   0  0  0  0  0  0  0  0  0  0  0  0
  -11.8669   -2.8191   32.3117 H   0  0  0  0  0  0  0  0  0  0  0  0
  -10.7209   -2.4806   30.9843 H   0  0  0  0  0  0  0  0  0  0  0  0
  -11.0793   -1.2573   32.2057 H   0  0  0  0  0  0  0  0  0  0  0  0
  -13.4113   -1.0659   31.4582 H   0  0  0  0  0  0  0  0  0  0  0  0
  -11.3940   -0.8168   29.1370 H   0  0  0  0  0  0  0  0  0  0  0  0
  -11.5041    0.2915   30.5138 H   0  0  0  0  0  0  0  0  0  0  0  0
  -12.8484    0.1777   29.3924 H   0  0  0  0  0  0  0  0  0  0  0  0
  -13.6765   -1.4996   28.1932 H   0  0  0  0  0  0  0  0  0  0  0  0
  -14.7853   -2.8292   28.3738 H   0  0  0  0  0  0  0  0  0  0  0  0
  -15.0468   -1.3596   29.3253 H   0  0  0  0  0  0  0  0  0  0  0  0
  -15.2777   -3.6240   30.6818 H   0  0  0  0  0  0  0  0  0  0  0  0
  -13.8782   -3.8669   31.7171 H   0  0  0  0  0  0  0  0  0  0  0  0
  -12.2774   -5.0898   31.1068 H   0  0  0  0  0  0  0  0  0  0  0  0
  -10.8900   -6.5741   29.6195 H   0  0  0  0  0  0  0  0  0  0  0  0
  -10.8669   -7.2897   31.0426 H   0  0  0  0  0  0  0  0  0  0  0  0
  -12.9159   -9.6983   28.8555 H   0  0  0  0  0  0  0  0  0  0  0  0
  -10.2324   -9.5386   28.4972 H   0  0  0  0  0  0  0  0  0  0  0  0
  -11.1761   -8.9745   27.3477 H   0  0  0  0  0  0  0  0  0  0  0  0
  -12.3896  -10.6680   26.4319 H   0  0  0  0  0  0  0  0  0  0  0  0
  -11.4864  -11.7413   26.9498 H   0  0  0  0  0  0  0  0  0  0  0  0
  -12.6701  -12.4425   28.0865 H   0  0  0  0  0  0  0  0  0  0  0  0
  -13.5503  -12.2883   28.9510 H   0  0  0  0  0  0  0  0  0  0  0  0
  -13.4598  -14.3008   33.5918 H   0  0  0  0  0  0  0  0  0  0  0  0
  -13.7159  -16.8286   33.1146 H   0  0  0  0  0  0  0  0  0  0  0  0
  -12.7261  -17.0092   30.5702 H   0  0  0  0  0  0  0  0  0  0  0  0
  1  2  1  0
  2  3  1  0
  2  4  1  0
  4  5  1  0
  4  6  1  0
  6  7  1  0
  7  8  2  0
  7  9  1  0
  9 10  1  0
 10 11  1  0
 11 12  1  0
 12 13  1  0
 13 14  1  0
 14 15  1  0
 15 16  1  0
 16 17  2  0
 16 18  1  0
 18 19  1  0
 19 20  2  0
 20 21  1  0
 21 22  1  0
 15 11  1  0
 22 18  2  0
  1 23  1  0
  1 24  1  0
  1 25  1  0
  2 26  1  0
  3 27  1  0
  3 28  1  0
  3 29  1  0
  5 30  1  0
  5 31  1  0
  5 32  1  0
  6 33  1  0
  6 34  1  0
  9 35  1  0
 10 36  1  0
 10 37  1  0
 11 38  1  0
 12 39  1  0
 12 40  1  0
 13 41  1  0
 13 42  1  0
 14 43  1  0
 14 44  1  0
 19 45  1  0
 20 46  1  0
 21 47  1  0
M  END
>  <Energy>  (797) 
888.67567615174073

>  <compound_id>  (797) 
36372

>  <target_id>  (797) 
1

>  <reference_id>  (797) 
53

>  <inspiration_ids>  (797) 
[53, 123]

>  <energy_score>  (797) 
733.4031298445176

>  <distance_score>  (797) 
12.697858718341227

>  <path>  (797) 
/opt/xchem-fragalysis-2/maxwin/BulkDock/SCRATCH/511024/C36372-P53/C36372-P53.minimised.mol

>  <scratch_subdir>  (797) 
/opt/xchem-fragalysis-2/maxwin/BulkDock/SCRATCH/511024/C36372-P53

>  <fragmenstein_runtime>  (797) 
26.292809009552002

>  <fragmenstein_outcome>  (797) 
too moved

>  <fragmenstein_mode>  (797) 
expansion

>  <fragmenstein_error>  (797) 


$$$$
C36372-P123
     RDKit          3D

 47 48  0  0  0  0  0  0  0  0999 V2000
   -1.8211   -1.5227   28.7514 C   0  0  0  0  0  0  0  0  0  0  0  0
   -2.7654   -2.6319   29.3371 C   0  0  0  0  0  0  0  0  0  0  0  0
   -2.8486   -2.3056   30.8570 C   0  0  0  0  0  0  0  0  0  0  0  0
   -4.2891   -2.9535   28.5338 N   0  0  0  0  0  0  0  0  0  0  0  0
   -4.1295   -2.3050   27.2539 C   0  0  0  0  0  0  0  0  0  0  0  0
   -5.5352   -4.1645   29.0845 C   0  0  0  0  0  0  0  0  0  0  0  0
   -6.4254   -5.7315   28.5558 C   0  0  0  0  0  0  0  0  0  0  0  0
   -7.2704   -5.4210   27.7596 O   0  0  0  0  0  0  0  0  0  0  0  0
   -6.4737   -7.6450   29.1164 N   0  0  0  0  0  0  0  0  0  0  0  0
   -7.8888   -9.1847   28.6557 C   0  0  0  0  0  0  0  0  0  0  0  0
   -9.9255   -9.6654   27.8455 C   0  0  0  0  0  0  0  0  0  0  0  0
  -10.9831   -9.2745   26.9294 C   0  0  0  0  0  0  0  0  0  0  0  0
  -11.9425   -9.6952   27.9265 C   0  0  0  0  0  0  0  0  0  0  0  0
  -11.6127  -10.4251   29.0148 C   0  0  0  0  0  0  0  0  0  0  0  0
  -11.3245  -11.3313   27.6362 N   0  0  0  0  0  0  0  0  0  0  0  0
  -11.0027  -13.3349   27.7657 C   0  0  0  0  0  0  0  0  0  0  0  0
   -9.8349  -13.5604   27.8810 O   0  0  0  0  0  0  0  0  0  0  0  0
  -11.8951  -14.9205   28.0196 C   0  0  0  0  0  0  0  0  0  0  0  0
  -12.9038  -16.2055   28.9996 C   0  0  0  0  0  0  0  0  0  0  0  0
  -13.0242  -16.1748   30.3356 C   0  0  0  0  0  0  0  0  0  0  0  0
  -12.1001  -15.2941   30.5029 N   0  0  0  0  0  0  0  0  0  0  0  0
  -11.6731  -14.5459   29.4000 N   0  0  0  0  0  0  0  0  0  0  0  0
   -2.2654   -0.5244   28.8123 H   0  0  0  0  0  0  0  0  0  0  0  0
   -1.5368   -1.7349   27.7211 H   0  0  0  0  0  0  0  0  0  0  0  0
   -0.8866   -1.4939   29.3253 H   0  0  0  0  0  0  0  0  0  0  0  0
   -2.1500   -3.5270   29.2258 H   0  0  0  0  0  0  0  0  0  0  0  0
   -2.8252   -1.2272   31.0539 H   0  0  0  0  0  0  0  0  0  0  0  0
   -1.9950   -2.7527   31.3787 H   0  0  0  0  0  0  0  0  0  0  0  0
   -3.7583   -2.6901   31.3216 H   0  0  0  0  0  0  0  0  0  0  0  0
   -3.7207   -1.3439   27.5337 H   0  0  0  0  0  0  0  0  0  0  0  0
   -4.9869   -2.4891   26.6464 H   0  0  0  0  0  0  0  0  0  0  0  0
   -3.3582   -2.4266   26.4797 H   0  0  0  0  0  0  0  0  0  0  0  0
   -5.7580   -3.9517   30.1498 H   0  0  0  0  0  0  0  0  0  0  0  0
   -6.3420   -3.5020   28.7197 H   0  0  0  0  0  0  0  0  0  0  0  0
   -5.6393   -7.8300   29.7307 H   0  0  0  0  0  0  0  0  0  0  0  0
   -8.4907   -9.3942   29.5289 H   0  0  0  0  0  0  0  0  0  0  0  0
   -7.1788   -9.8528   29.1498 H   0  0  0  0  0  0  0  0  0  0  0  0
   -9.0121  -10.0298   27.3829 H   0  0  0  0  0  0  0  0  0  0  0  0
  -11.1494   -9.9827   26.0851 H   0  0  0  0  0  0  0  0  0  0  0  0
  -11.0884   -8.2753   26.5572 H   0  0  0  0  0  0  0  0  0  0  0  0
  -12.9420  -10.0518   27.8231 H   0  0  0  0  0  0  0  0  0  0  0  0
  -11.6220   -9.1904   28.7897 H   0  0  0  0  0  0  0  0  0  0  0  0
  -12.5577  -10.8108   29.4335 H   0  0  0  0  0  0  0  0  0  0  0  0
  -10.7940  -10.1443   29.7542 H   0  0  0  0  0  0  0  0  0  0  0  0
  -13.7693  -16.7279   28.5636 H   0  0  0  0  0  0  0  0  0  0  0  0
  -13.5759  -16.5709   31.1594 H   0  0  0  0  0  0  0  0  0  0  0  0
  -11.6801  -15.1924   31.4115 H   0  0  0  0  0  0  0  0  0  0  0  0
  1  2  1  0
  2  3  1  0
  2  4  1  0
  4  5  1  0
  4  6  1  0
  6  7  1  0
  7  8  2  0
  7  9  1  0
  9 10  1  0
 10 11  1  0
 11 12  1  0
 12 13  1  0
 13 14  1  0
 14 15  1  0
 15 16  1  0
 16 17  2  0
 16 18  1  0
 18 19  1  0
 19 20  2  0
 20 21  1  0
 21 22  1  0
 15 11  1  0
 22 18  2  0
  1 23  1  0
  1 24  1  0
  1 25  1  0
  2 26  1  0
  3 27  1  0
  3 28  1  0
  3 29  1  0
  5 30  1  0
  5 31  1  0
  5 32  1  0
  6 33  1  0
  6 34  1  0
  9 35  1  0
 10 36  1  0
 10 37  1  0
 11 38  1  0
 12 39  1  0
 12 40  1  0
 13 41  1  0
 13 42  1  0
 14 43  1  0
 14 44  1  0
 19 45  1  0
 20 46  1  0
 21 47  1  0
M  END
>  <Energy>  (798) 
1698.1290358951353

>  <compound_id>  (798) 
36372

>  <target_id>  (798) 
1

>  <reference_id>  (798) 
123

>  <inspiration_ids>  (798) 
[53, 123]

>  <energy_score>  (798) 
1542.8564895879022

>  <distance_score>  (798) 
8.19493253954347

>  <path>  (798) 
/opt/xchem-fragalysis-2/maxwin/BulkDock/SCRATCH/511024/C36372-P123/C36372-P123.minimised.mol

>  <scratch_subdir>  (798) 
/opt/xchem-fragalysis-2/maxwin/BulkDock/SCRATCH/511024/C36372-P123

>  <fragmenstein_runtime>  (798) 
23.29900550842285

>  <fragmenstein_outcome>  (798) 
too moved

>  <fragmenstein_mode>  (798) 
expansion

>  <fragmenstein_error>  (798) 


$$$$
C14115-P53
     RDKit          3D

 50 51  0  0  0  0  0  0  0  0999 V2000
   -4.5877   -2.1200   34.0132 C   0  0  0  0  0  0  0  0  0  0  0  0
   -5.5983   -2.6733   32.9685 C   0  0  0  0  0  0  0  0  0  0  0  0
   -6.6373   -1.5684   32.7495 C   0  0  0  0  0  0  0  0  0  0  0  0
   -4.9871   -3.2817   31.7560 N   0  0  0  0  0  0  0  0  0  0  0  0
   -3.6814   -2.6126   31.4856 C   0  0  0  0  0  0  0  0  0  0  0  0
   -5.9961   -4.0265   30.6563 C   0  0  0  0  0  0  0  0  0  0  0  0
   -6.3081   -5.9423   30.8232 C   0  0  0  0  0  0  0  0  0  0  0  0
   -6.5161   -6.5309   31.8527 O   0  0  0  0  0  0  0  0  0  0  0  0
   -6.1040   -6.6584   29.2885 N   0  0  0  0  0  0  0  0  0  0  0  0
   -5.9972   -8.4680   28.7826 C   0  0  0  0  0  0  0  0  0  0  0  0
   -6.6146  -10.4622   28.8692 C   0  0  0  0  0  0  0  0  0  0  0  0
   -6.9510   -9.3498   27.1605 C   0  0  0  0  0  0  0  0  0  0  0  0
   -6.8742  -10.7011   25.8110 C   0  0  0  0  0  0  0  0  0  0  0  0
   -6.1935  -11.9327   26.6789 C   0  0  0  0  0  0  0  0  0  0  0  0
   -6.5954  -12.6072   28.1969 N   0  0  0  0  0  0  0  0  0  0  0  0
   -8.0673  -13.9530   27.9366 C   0  0  0  0  0  0  0  0  0  0  0  0
   -9.1486  -13.4779   28.0657 O   0  0  0  0  0  0  0  0  0  0  0  0
   -8.2865  -16.0639   27.6631 C   0  0  0  0  0  0  0  0  0  0  0  0
   -9.1732  -17.9081   28.2152 C   0  0  0  0  0  0  0  0  0  0  0  0
   -9.1569  -19.6064   28.3018 C   0  0  0  0  0  0  0  0  0  0  0  0
  -10.4841  -20.7362   29.0306 C   0  0  0  0  0  0  0  0  0  0  0  0
  -11.0763  -19.8855   29.8304 N   0  0  0  0  0  0  0  0  0  0  0  0
  -10.7907  -18.2079   29.2281 N   0  0  0  0  0  0  0  0  0  0  0  0
   -4.0692   -1.2159   33.6790 H   0  0  0  0  0  0  0  0  0  0  0  0
   -5.1195   -1.8564   34.9359 H   0  0  0  0  0  0  0  0  0  0  0  0
   -3.8498   -2.8810   34.2900 H   0  0  0  0  0  0  0  0  0  0  0  0
   -6.0727   -3.4867   33.5078 H   0  0  0  0  0  0  0  0  0  0  0  0
   -6.1649   -0.5894   32.6598 H   0  0  0  0  0  0  0  0  0  0  0  0
   -7.2907   -1.5073   33.6289 H   0  0  0  0  0  0  0  0  0  0  0  0
   -7.2948   -1.7462   31.8968 H   0  0  0  0  0  0  0  0  0  0  0  0
   -2.9587   -2.8820   32.2668 H   0  0  0  0  0  0  0  0  0  0  0  0
   -3.7251   -1.5204   31.5466 H   0  0  0  0  0  0  0  0  0  0  0  0
   -3.1329   -2.8529   30.5770 H   0  0  0  0  0  0  0  0  0  0  0  0
   -6.9411   -3.4748   30.7126 H   0  0  0  0  0  0  0  0  0  0  0  0
   -5.6833   -3.8719   29.6227 H   0  0  0  0  0  0  0  0  0  0  0  0
   -6.0297   -5.9280   28.5893 H   0  0  0  0  0  0  0  0  0  0  0  0
   -5.1477   -8.1771   28.1197 H   0  0  0  0  0  0  0  0  0  0  0  0
   -5.5166   -8.4589   29.7390 H   0  0  0  0  0  0  0  0  0  0  0  0
   -7.3337  -10.1552   29.6577 H   0  0  0  0  0  0  0  0  0  0  0  0
   -6.2293   -8.6351   27.0414 H   0  0  0  0  0  0  0  0  0  0  0  0
   -7.9929   -9.1246   27.2536 H   0  0  0  0  0  0  0  0  0  0  0  0
   -7.9378  -10.9046   25.6964 H   0  0  0  0  0  0  0  0  0  0  0  0
   -6.6194  -10.6951   24.7871 H   0  0  0  0  0  0  0  0  0  0  0  0
   -6.6740  -12.7650   26.1665 H   0  0  0  0  0  0  0  0  0  0  0  0
   -5.1654  -11.8281   26.9825 H   0  0  0  0  0  0  0  0  0  0  0  0
   -9.3212  -15.8673   27.2473 H   0  0  0  0  0  0  0  0  0  0  0  0
   -8.1170  -16.1517   26.5999 H   0  0  0  0  0  0  0  0  0  0  0  0
   -8.3525  -20.4214   27.9218 H   0  0  0  0  0  0  0  0  0  0  0  0
  -10.5722  -21.8126   28.9210 H   0  0  0  0  0  0  0  0  0  0  0  0
  -11.6599  -17.7163   29.0139 H   0  0  0  0  0  0  0  0  0  0  0  0
  1  2  1  0
  2  3  1  0
  2  4  1  0
  4  5  1  0
  4  6  1  0
  6  7  1  0
  7  8  2  0
  7  9  1  0
  9 10  1  0
 10 11  1  0
 11 12  1  0
 12 13  1  0
 13 14  1  0
 14 15  1  0
 15 16  1  0
 16 17  2  0
 16 18  1  0
 18 19  1  0
 19 20  2  0
 20 21  1  0
 21 22  2  0
 22 23  1  0
 15 11  1  0
 23 19  1  0
  1 24  1  0
  1 25  1  0
  1 26  1  0
  2 27  1  0
  3 28  1  0
  3 29  1  0
  3 30  1  0
  5 31  1  0
  5 32  1  0
  5 33  1  0
  6 34  1  0
  6 35  1  0
  9 36  1  0
 10 37  1  0
 10 38  1  0
 11 39  1  0
 12 40  1  0
 12 41  1  0
 13 42  1  0
 13 43  1  0
 14 44  1  0
 14 45  1  0
 18 46  1  0
 18 47  1  0
 20 48  1  0
 21 49  1  0
 23 50  1  0
M  END
>  <Energy>  (799) 
1550.785866713645

>  <compound_id>  (799) 
14115

>  <target_id>  (799) 
1

>  <reference_id>  (799) 
53

>  <inspiration_ids>  (799) 
[53, 123]

>  <energy_score>  (799) 
1435.6605060041754

>  <distance_score>  (799) 
8.477981818376403

>  <path>  (799) 
/opt/xchem-fragalysis-2/maxwin/BulkDock/SCRATCH/511024/C14115-P53/C14115-P53.minimised.mol

>  <scratch_subdir>  (799) 
/opt/xchem-fragalysis-2/maxwin/BulkDock/SCRATCH/511024/C14115-P53

>  <fragmenstein_runtime>  (799) 
33.08531904220581

>  <fragmenstein_outcome>  (799) 
too moved

>  <fragmenstein_mode>  (799) 
expansion

>  <fragmenstein_error>  (799) 


$$$$
C14115-P123
     RDKit          3D

 50 51  0  0  0  0  0  0  0  0999 V2000
   -2.2665   -2.9601   31.9668 C   0  0  0  0  0  0  0  0  0  0  0  0
   -3.3648   -2.3016   31.0887 C   0  0  0  0  0  0  0  0  0  0  0  0
   -3.0875   -0.7553   31.3485 C   0  0  0  0  0  0  0  0  0  0  0  0
   -4.8398   -2.8746   31.3025 N   0  0  0  0  0  0  0  0  0  0  0  0
   -5.4902   -2.3253   32.4893 C   0  0  0  0  0  0  0  0  0  0  0  0
   -6.0921   -3.5633   30.2083 C   0  0  0  0  0  0  0  0  0  0  0  0
   -5.7528   -4.4884   28.9520 C   0  0  0  0  0  0  0  0  0  0  0  0
   -5.2557   -3.8144   28.0614 O   0  0  0  0  0  0  0  0  0  0  0  0
   -6.0000   -6.3326   29.1029 N   0  0  0  0  0  0  0  0  0  0  0  0
   -5.4049   -7.9253   27.9501 C   0  0  0  0  0  0  0  0  0  0  0  0
   -6.3361   -9.6435   27.1905 C   0  0  0  0  0  0  0  0  0  0  0  0
   -7.5625   -9.4830   26.5663 C   0  0  0  0  0  0  0  0  0  0  0  0
   -7.5212  -10.5544   25.4834 C   0  0  0  0  0  0  0  0  0  0  0  0
   -6.3457  -11.1854   25.3916 C   0  0  0  0  0  0  0  0  0  0  0  0
   -6.3274  -11.6754   26.6743 N   0  0  0  0  0  0  0  0  0  0  0  0
   -7.4219  -12.7304   26.8069 C   0  0  0  0  0  0  0  0  0  0  0  0
   -8.5424  -12.6263   27.1372 O   0  0  0  0  0  0  0  0  0  0  0  0
   -7.1472  -13.9775   26.6416 C   0  0  0  0  0  0  0  0  0  0  0  0
   -8.4579  -14.8566   26.9430 C   0  0  0  0  0  0  0  0  0  0  0  0
   -8.5930  -16.1898   27.0365 C   0  0  0  0  0  0  0  0  0  0  0  0
   -9.7800  -16.3100   26.4387 C   0  0  0  0  0  0  0  0  0  0  0  0
  -10.6171  -15.3764   26.9259 N   0  0  0  0  0  0  0  0  0  0  0  0
   -9.7294  -14.4120   27.2427 N   0  0  0  0  0  0  0  0  0  0  0  0
   -1.3048   -2.4387   31.8868 H   0  0  0  0  0  0  0  0  0  0  0  0
   -2.5492   -2.9688   33.0246 H   0  0  0  0  0  0  0  0  0  0  0  0
   -2.0299   -3.9759   31.6394 H   0  0  0  0  0  0  0  0  0  0  0  0
   -3.0062   -2.5354   30.0784 H   0  0  0  0  0  0  0  0  0  0  0  0
   -2.0719   -0.5648   31.7145 H   0  0  0  0  0  0  0  0  0  0  0  0
   -3.7557   -0.3307   32.1015 H   0  0  0  0  0  0  0  0  0  0  0  0
   -3.1558   -0.1554   30.4378 H   0  0  0  0  0  0  0  0  0  0  0  0
   -4.7931   -1.8267   33.1682 H   0  0  0  0  0  0  0  0  0  0  0  0
   -5.9023   -3.1386   33.0832 H   0  0  0  0  0  0  0  0  0  0  0  0
   -6.2954   -1.6282   32.2439 H   0  0  0  0  0  0  0  0  0  0  0  0
   -5.8988   -4.4316   30.7381 H   0  0  0  0  0  0  0  0  0  0  0  0
   -7.0776   -3.1229   30.3409 H   0  0  0  0  0  0  0  0  0  0  0  0
   -6.3627   -6.5498   29.9968 H   0  0  0  0  0  0  0  0  0  0  0  0
   -5.3763   -8.3263   28.9408 H   0  0  0  0  0  0  0  0  0  0  0  0
   -4.4057   -7.7573   27.5947 H   0  0  0  0  0  0  0  0  0  0  0  0
   -6.7076   -9.5277   28.2819 H   0  0  0  0  0  0  0  0  0  0  0  0
   -8.3486   -9.4937   27.3389 H   0  0  0  0  0  0  0  0  0  0  0  0
   -7.3239   -8.5197   26.3926 H   0  0  0  0  0  0  0  0  0  0  0  0
   -7.4121  -10.4655   24.3740 H   0  0  0  0  0  0  0  0  0  0  0  0
   -8.4155  -11.1112   25.7192 H   0  0  0  0  0  0  0  0  0  0  0  0
   -6.6018  -12.1264   25.0002 H   0  0  0  0  0  0  0  0  0  0  0  0
   -5.7164  -11.5151   24.5352 H   0  0  0  0  0  0  0  0  0  0  0  0
   -6.7828  -14.0304   27.6731 H   0  0  0  0  0  0  0  0  0  0  0  0
   -6.9851  -14.3634   25.6739 H   0  0  0  0  0  0  0  0  0  0  0  0
   -7.9470  -16.8947   27.4784 H   0  0  0  0  0  0  0  0  0  0  0  0
  -10.0957  -17.0605   25.7679 H   0  0  0  0  0  0  0  0  0  0  0  0
  -10.0486  -13.4720   27.4024 H   0  0  0  0  0  0  0  0  0  0  0  0
  1  2  1  0
  2  3  1  0
  2  4  1  0
  4  5  1  0
  4  6  1  0
  6  7  1  0
  7  8  2  0
  7  9  1  0
  9 10  1  0
 10 11  1  0
 11 12  1  0
 12 13  1  0
 13 14  1  0
 14 15  1  0
 15 16  1  0
 16 17  2  0
 16 18  1  0
 18 19  1  0
 19 20  2  0
 20 21  1  0
 21 22  2  0
 22 23  1  0
 15 11  1  0
 23 19  1  0
  1 24  1  0
  1 25  1  0
  1 26  1  0
  2 27  1  0
  3 28  1  0
  3 29  1  0
  3 30  1  0
  5 31  1  0
  5 32  1  0
  5 33  1  0
  6 34  1  0
  6 35  1  0
  9 36  1  0
 10 37  1  0
 10 38  1  0
 11 39  1  0
 12 40  1  0
 12 41  1  0
 13 42  1  0
 13 43  1  0
 14 44  1  0
 14 45  1  0
 18 46  1  0
 18 47  1  0
 20 48  1  0
 21 49  1  0
 23 50  1  0
M  END
>  <Energy>  (800) 
911.92340623038535

>  <compound_id>  (800) 
14115

>  <target_id>  (800) 
1

>  <reference_id>  (800) 
123

>  <inspiration_ids>  (800) 
[53, 123]

>  <energy_score>  (800) 
796.7980455209174

>  <distance_score>  (800) 
9.082890544585485

>  <path>  (800) 
/opt/xchem-fragalysis-2/maxwin/BulkDock/SCRATCH/511024/C14115-P123/C14115-P123.minimised.mol

>  <scratch_subdir>  (800) 
/opt/xchem-fragalysis-2/maxwin/BulkDock/SCRATCH/511024/C14115-P123

>  <fragmenstein_runtime>  (800) 
26.906819820404053

>  <fragmenstein_outcome>  (800) 
too moved

>  <fragmenstein_mode>  (800) 
expansion

>  <fragmenstein_error>  (800) 


$$$$
C14116-P53
     RDKit          3D

 42 43  0  0  0  0  0  0  0  0999 V2000
  -10.3159   -2.6953   23.7506 C   0  0  0  0  0  0  0  0  0  0  0  0
  -10.7250   -3.0522   22.3186 C   0  0  0  0  0  0  0  0  0  0  0  0
  -12.0647   -3.8974   22.1088 C   0  0  0  0  0  0  0  0  0  0  0  0
  -13.1655   -3.3696   23.0439 C   0  0  0  0  0  0  0  0  0  0  0  0
  -12.5236   -3.6686   20.6508 C   0  0  0  0  0  0  0  0  0  0  0  0
  -11.8624   -5.4547   22.2804 C   0  0  0  0  0  0  0  0  0  0  0  0
  -10.7192   -5.8399   21.5207 O   0  0  0  0  0  0  0  0  0  0  0  0
  -13.0592   -6.5710   22.4351 C   0  0  0  0  0  0  0  0  0  0  0  0
  -14.0866   -6.2457   22.9763 O   0  0  0  0  0  0  0  0  0  0  0  0
  -12.6146   -7.8864   21.9429 N   0  0  0  0  0  0  0  0  0  0  0  0
  -11.8739   -8.6018   23.0077 C   0  0  0  0  0  0  0  0  0  0  0  0
  -11.8708  -10.0964   23.1679 C   0  0  0  0  0  0  0  0  0  0  0  0
  -13.3343  -10.2518   23.0811 C   0  0  0  0  0  0  0  0  0  0  0  0
  -13.6741  -11.7332   23.1851 C   0  0  0  0  0  0  0  0  0  0  0  0
  -13.5881  -12.8283   22.3447 C   0  0  0  0  0  0  0  0  0  0  0  0
  -13.8907  -13.9606   23.1415 C   0  0  0  0  0  0  0  0  0  0  0  0
  -14.1533  -13.6301   24.4058 N   0  0  0  0  0  0  0  0  0  0  0  0
  -14.0275  -12.2897   24.4087 N   0  0  0  0  0  0  0  0  0  0  0  0
  -13.4038   -9.3058   21.8563 C   0  0  0  0  0  0  0  0  0  0  0  0
   -9.3112   -2.2612   23.7569 H   0  0  0  0  0  0  0  0  0  0  0  0
  -10.9999   -1.9536   24.1747 H   0  0  0  0  0  0  0  0  0  0  0  0
  -10.3189   -3.5666   24.4067 H   0  0  0  0  0  0  0  0  0  0  0  0
   -9.8885   -3.5622   21.8276 H   0  0  0  0  0  0  0  0  0  0  0  0
  -10.8355   -2.0986   21.7841 H   0  0  0  0  0  0  0  0  0  0  0  0
  -14.1513   -3.7597   22.7716 H   0  0  0  0  0  0  0  0  0  0  0  0
  -12.9708   -3.6447   24.0858 H   0  0  0  0  0  0  0  0  0  0  0  0
  -13.2340   -2.2769   22.9907 H   0  0  0  0  0  0  0  0  0  0  0  0
  -12.7572   -2.6132   20.4699 H   0  0  0  0  0  0  0  0  0  0  0  0
  -11.7472   -3.9629   19.9361 H   0  0  0  0  0  0  0  0  0  0  0  0
  -13.4250   -4.2491   20.4241 H   0  0  0  0  0  0  0  0  0  0  0  0
  -11.5329   -5.4980   23.3125 H   0  0  0  0  0  0  0  0  0  0  0  0
  -11.0272   -6.5943   20.9815 H   0  0  0  0  0  0  0  0  0  0  0  0
  -12.1412   -8.1279   23.9587 H   0  0  0  0  0  0  0  0  0  0  0  0
  -10.8369   -8.2946   22.8217 H   0  0  0  0  0  0  0  0  0  0  0  0
  -11.3197  -10.5948   22.3594 H   0  0  0  0  0  0  0  0  0  0  0  0
  -11.4672  -10.4546   24.1177 H   0  0  0  0  0  0  0  0  0  0  0  0
  -13.8626   -9.7498   23.8979 H   0  0  0  0  0  0  0  0  0  0  0  0
  -13.3036  -12.8247   21.3014 H   0  0  0  0  0  0  0  0  0  0  0  0
  -13.9163  -15.0024   22.8480 H   0  0  0  0  0  0  0  0  0  0  0  0
  -14.1689  -11.8033   25.2872 H   0  0  0  0  0  0  0  0  0  0  0  0
  -14.4486   -9.0295   21.6680 H   0  0  0  0  0  0  0  0  0  0  0  0
  -13.0317   -9.7865   20.9392 H   0  0  0  0  0  0  0  0  0  0  0  0
  1  2  1  0
  2  3  1  0
  3  4  1  0
  3  5  1  0
  3  6  1  0
  6  7  1  0
  6  8  1  0
  8  9  2  0
  8 10  1  0
 10 11  1  0
 11 12  1  0
 12 13  1  0
 13 14  1  0
 14 15  2  0
 15 16  1  0
 16 17  2  0
 17 18  1  0
 13 19  1  0
 19 10  1  0
 18 14  1  0
  1 20  1  0
  1 21  1  0
  1 22  1  0
  2 23  1  0
  2 24  1  0
  4 25  1  0
  4 26  1  0
  4 27  1  0
  5 28  1  0
  5 29  1  0
  5 30  1  0
  6 31  1  0
  7 32  1  0
 11 33  1  0
 11 34  1  0
 12 35  1  0
 12 36  1  0
 13 37  1  0
 15 38  1  0
 16 39  1  0
 18 40  1  0
 19 41  1  0
 19 42  1  0
M  END
>  <Energy>  (801) 
154.44395391741858

>  <compound_id>  (801) 
14116

>  <target_id>  (801) 
1

>  <reference_id>  (801) 
53

>  <inspiration_ids>  (801) 
[53, 123]

>  <energy_score>  (801) 
47.721463622865485

>  <distance_score>  (801) 
14.486744367345182

>  <path>  (801) 
/opt/xchem-fragalysis-2/maxwin/BulkDock/SCRATCH/511024/C14116-P53/C14116-P53.minimised.mol

>  <scratch_subdir>  (801) 
/opt/xchem-fragalysis-2/maxwin/BulkDock/SCRATCH/511024/C14116-P53

>  <fragmenstein_runtime>  (801) 
32.31793451309204

>  <fragmenstein_outcome>  (801) 
too moved

>  <fragmenstein_mode>  (801) 
expansion

>  <fragmenstein_error>  (801) 


$$$$
C14116-P123
     RDKit          3D

 42 43  0  0  0  0  0  0  0  0999 V2000
   -3.4543   -2.8008   28.8535 C   0  0  0  0  0  0  0  0  0  0  0  0
   -5.1405   -3.6549   28.3480 C   0  0  0  0  0  0  0  0  0  0  0  0
   -6.0983   -5.4744   28.5811 C   0  0  0  0  0  0  0  0  0  0  0  0
   -6.0833   -4.3968   30.0517 C   0  0  0  0  0  0  0  0  0  0  0  0
   -7.6904   -4.6127   27.8536 C   0  0  0  0  0  0  0  0  0  0  0  0
   -5.7281   -7.6640   28.9212 C   0  0  0  0  0  0  0  0  0  0  0  0
   -4.7692   -7.6653   27.9340 O   0  0  0  0  0  0  0  0  0  0  0  0
   -6.5298   -9.6981   29.1523 C   0  0  0  0  0  0  0  0  0  0  0  0
   -7.7066   -9.6433   29.4235 O   0  0  0  0  0  0  0  0  0  0  0  0
   -5.8650  -11.5970   28.8391 N   0  0  0  0  0  0  0  0  0  0  0  0
   -5.2667  -12.3986   30.2356 C   0  0  0  0  0  0  0  0  0  0  0  0
   -6.1633  -13.7643   30.5404 C   0  0  0  0  0  0  0  0  0  0  0  0
   -6.1107  -14.6447   29.4693 C   0  0  0  0  0  0  0  0  0  0  0  0
   -5.3149  -16.3358   29.8399 C   0  0  0  0  0  0  0  0  0  0  0  0
   -4.2061  -17.0576   29.3122 C   0  0  0  0  0  0  0  0  0  0  0  0
   -4.0938  -18.2895   29.9814 C   0  0  0  0  0  0  0  0  0  0  0  0
   -4.8715  -18.3188   31.0461 N   0  0  0  0  0  0  0  0  0  0  0  0
   -5.4585  -17.1230   31.0327 N   0  0  0  0  0  0  0  0  0  0  0  0
   -6.8018  -13.3292   28.7420 C   0  0  0  0  0  0  0  0  0  0  0  0
   -3.2938   -1.9468   28.1692 H   0  0  0  0  0  0  0  0  0  0  0  0
   -3.3417   -2.5829   29.9495 H   0  0  0  0  0  0  0  0  0  0  0  0
   -2.4820   -3.3411   28.8619 H   0  0  0  0  0  0  0  0  0  0  0  0
   -5.0284   -3.2894   27.3188 H   0  0  0  0  0  0  0  0  0  0  0  0
   -5.9481   -2.9756   28.5322 H   0  0  0  0  0  0  0  0  0  0  0  0
   -6.9202   -3.6753   30.0734 H   0  0  0  0  0  0  0  0  0  0  0  0
   -6.1909   -5.2787   30.6216 H   0  0  0  0  0  0  0  0  0  0  0  0
   -5.3667   -3.7587   30.5768 H   0  0  0  0  0  0  0  0  0  0  0  0
   -8.0315   -3.8545   28.5899 H   0  0  0  0  0  0  0  0  0  0  0  0
   -7.7374   -3.6648   27.2821 H   0  0  0  0  0  0  0  0  0  0  0  0
   -8.3804   -5.2289   27.2867 H   0  0  0  0  0  0  0  0  0  0  0  0
   -6.4104   -6.9341   29.3636 H   0  0  0  0  0  0  0  0  0  0  0  0
   -3.8955   -7.5315   28.3532 H   0  0  0  0  0  0  0  0  0  0  0  0
   -5.3134  -11.6825   31.0529 H   0  0  0  0  0  0  0  0  0  0  0  0
   -4.2411  -12.5953   29.9332 H   0  0  0  0  0  0  0  0  0  0  0  0
   -6.0597  -14.6521   31.0905 H   0  0  0  0  0  0  0  0  0  0  0  0
   -7.0664  -13.5972   31.0813 H   0  0  0  0  0  0  0  0  0  0  0  0
   -6.6723  -15.1858   28.7101 H   0  0  0  0  0  0  0  0  0  0  0  0
   -3.5664  -16.7823   28.4872 H   0  0  0  0  0  0  0  0  0  0  0  0
   -3.4400  -19.1255   29.7701 H   0  0  0  0  0  0  0  0  0  0  0  0
   -5.8912  -16.8636   31.9087 H   0  0  0  0  0  0  0  0  0  0  0  0
   -6.8387  -13.3784   27.6111 H   0  0  0  0  0  0  0  0  0  0  0  0
   -7.8879  -13.5899   28.7057 H   0  0  0  0  0  0  0  0  0  0  0  0
  1  2  1  0
  2  3  1  0
  3  4  1  0
  3  5  1  0
  3  6  1  0
  6  7  1  0
  6  8  1  0
  8  9  2  0
  8 10  1  0
 10 11  1  0
 11 12  1  0
 12 13  1  0
 13 14  1  0
 14 15  2  0
 15 16  1  0
 16 17  2  0
 17 18  1  0
 13 19  1  0
 19 10  1  0
 18 14  1  0
  1 20  1  0
  1 21  1  0
  1 22  1  0
  2 23  1  0
  2 24  1  0
  4 25  1  0
  4 26  1  0
  4 27  1  0
  5 28  1  0
  5 29  1  0
  5 30  1  0
  6 31  1  0
  7 32  1  0
 11 33  1  0
 11 34  1  0
 12 35  1  0
 12 36  1  0
 13 37  1  0
 15 38  1  0
 16 39  1  0
 18 40  1  0
 19 41  1  0
 19 42  1  0
M  END
>  <Energy>  (802) 
1297.2505736140361

>  <compound_id>  (802) 
14116

>  <target_id>  (802) 
1

>  <reference_id>  (802) 
123

>  <inspiration_ids>  (802) 
[53, 123]

>  <energy_score>  (802) 
1190.5280833194918

>  <distance_score>  (802) 
10.767803407907122

>  <path>  (802) 
/opt/xchem-fragalysis-2/maxwin/BulkDock/SCRATCH/511024/C14116-P123/C14116-P123.minimised.mol

>  <scratch_subdir>  (802) 
/opt/xchem-fragalysis-2/maxwin/BulkDock/SCRATCH/511024/C14116-P123

>  <fragmenstein_runtime>  (802) 
19.353342533111572

>  <fragmenstein_outcome>  (802) 
too moved

>  <fragmenstein_mode>  (802) 
expansion

>  <fragmenstein_error>  (802) 


$$$$
C14117-P53
     RDKit          3D

 52 53  0  0  0  0  0  0  0  0999 V2000
  -12.1143  -15.7698   37.5136 C   0  0  0  0  0  0  0  0  0  0  0  0
  -10.9719  -15.8775   36.5064 C   0  0  0  0  0  0  0  0  0  0  0  0
  -10.8404  -17.2438   35.7291 C   0  0  0  0  0  0  0  0  0  0  0  0
  -12.1976  -17.5119   35.0761 C   0  0  0  0  0  0  0  0  0  0  0  0
  -10.6066  -18.3729   36.7739 C   0  0  0  0  0  0  0  0  0  0  0  0
   -9.5618  -17.1105   34.7328 C   0  0  0  0  0  0  0  0  0  0  0  0
   -8.5365  -16.9082   35.7291 O   0  0  0  0  0  0  0  0  0  0  0  0
   -9.1031  -18.4022   33.7734 C   0  0  0  0  0  0  0  0  0  0  0  0
   -9.9540  -19.2311   33.6731 O   0  0  0  0  0  0  0  0  0  0  0  0
   -7.6111  -18.3960   33.2492 N   0  0  0  0  0  0  0  0  0  0  0  0
   -6.9044  -19.3664   32.6588 C   0  0  0  0  0  0  0  0  0  0  0  0
   -6.1554  -18.2024   32.6437 C   0  0  0  0  0  0  0  0  0  0  0  0
   -6.9159  -16.8829   32.5015 C   0  0  0  0  0  0  0  0  0  0  0  0
   -6.8401  -17.7201   31.4850 C   0  0  0  0  0  0  0  0  0  0  0  0
   -5.4887  -16.1720   30.6984 C   0  0  0  0  0  0  0  0  0  0  0  0
   -4.7726  -14.6466   30.5013 N   0  0  0  0  0  0  0  0  0  0  0  0
   -3.1118  -14.1707   29.7741 C   0  0  0  0  0  0  0  0  0  0  0  0
   -2.2347  -14.9330   29.4032 O   0  0  0  0  0  0  0  0  0  0  0  0
   -2.7651  -12.1900   29.4069 C   0  0  0  0  0  0  0  0  0  0  0  0
   -1.5282  -10.6916   29.8641 C   0  0  0  0  0  0  0  0  0  0  0  0
   -1.4525   -9.6270   30.9179 C   0  0  0  0  0  0  0  0  0  0  0  0
   -0.6220   -8.5333   30.5511 C   0  0  0  0  0  0  0  0  0  0  0  0
   -0.1559   -8.8124   29.3560 N   0  0  0  0  0  0  0  0  0  0  0  0
   -0.2912  -10.1533   29.3827 N   0  0  0  0  0  0  0  0  0  0  0  0
  -12.0531  -16.5464   38.2808 H   0  0  0  0  0  0  0  0  0  0  0  0
  -13.0923  -15.8296   37.0282 H   0  0  0  0  0  0  0  0  0  0  0  0
  -12.0654  -14.8006   38.0218 H   0  0  0  0  0  0  0  0  0  0  0  0
  -10.0475  -15.6647   37.0563 H   0  0  0  0  0  0  0  0  0  0  0  0
  -11.0910  -15.0678   35.7750 H   0  0  0  0  0  0  0  0  0  0  0  0
  -12.5715  -16.6417   34.5287 H   0  0  0  0  0  0  0  0  0  0  0  0
  -12.9691  -17.7562   35.8159 H   0  0  0  0  0  0  0  0  0  0  0  0
  -12.1483  -18.3672   34.4156 H   0  0  0  0  0  0  0  0  0  0  0  0
  -10.2313  -19.2848   36.3035 H   0  0  0  0  0  0  0  0  0  0  0  0
  -11.5279  -18.6391   37.3040 H   0  0  0  0  0  0  0  0  0  0  0  0
   -9.8842  -18.0758   37.5420 H   0  0  0  0  0  0  0  0  0  0  0  0
   -9.6483  -16.2038   34.1371 H   0  0  0  0  0  0  0  0  0  0  0  0
   -8.3681  -17.7811   36.1228 H   0  0  0  0  0  0  0  0  0  0  0  0
   -6.8210  -20.0187   31.8347 H   0  0  0  0  0  0  0  0  0  0  0  0
   -6.7973  -20.0934   33.4962 H   0  0  0  0  0  0  0  0  0  0  0  0
   -5.1795  -17.7191   32.7856 H   0  0  0  0  0  0  0  0  0  0  0  0
   -5.4437  -19.0289   32.9560 H   0  0  0  0  0  0  0  0  0  0  0  0
   -6.3392  -15.9967   32.2909 H   0  0  0  0  0  0  0  0  0  0  0  0
   -7.9042  -16.4963   32.4057 H   0  0  0  0  0  0  0  0  0  0  0  0
   -7.3063  -18.2835   30.6933 H   0  0  0  0  0  0  0  0  0  0  0  0
   -5.2642  -16.5242   29.7068 H   0  0  0  0  0  0  0  0  0  0  0  0
   -4.6645  -16.0343   31.4735 H   0  0  0  0  0  0  0  0  0  0  0  0
   -5.3334  -13.8246   30.6401 H   0  0  0  0  0  0  0  0  0  0  0  0
   -2.6066  -12.1240   28.3227 H   0  0  0  0  0  0  0  0  0  0  0  0
   -3.7478  -11.7662   29.4975 H   0  0  0  0  0  0  0  0  0  0  0  0
   -2.1307   -9.4415   31.7286 H   0  0  0  0  0  0  0  0  0  0  0  0
   -0.4720   -7.5690   31.0196 H   0  0  0  0  0  0  0  0  0  0  0  0
    0.6135  -10.6117   29.4138 H   0  0  0  0  0  0  0  0  0  0  0  0
  1  2  1  0
  2  3  1  0
  3  4  1  0
  3  5  1  0
  3  6  1  0
  6  7  1  0
  6  8  1  0
  8  9  2  0
  8 10  1  0
 10 11  1  0
 11 12  1  0
 12 13  1  0
 13 14  1  0
 14 15  1  0
 15 16  1  0
 16 17  1  0
 17 18  2  0
 17 19  1  0
 19 20  1  0
 20 21  2  0
 21 22  1  0
 22 23  2  0
 23 24  1  0
 14 10  1  0
 24 20  1  0
  1 25  1  0
  1 26  1  0
  1 27  1  0
  2 28  1  0
  2 29  1  0
  4 30  1  0
  4 31  1  0
  4 32  1  0
  5 33  1  0
  5 34  1  0
  5 35  1  0
  6 36  1  0
  7 37  1  0
 11 38  1  0
 11 39  1  0
 12 40  1  0
 12 41  1  0
 13 42  1  0
 13 43  1  0
 14 44  1  0
 15 45  1  0
 15 46  1  0
 16 47  1  0
 19 48  1  0
 19 49  1  0
 21 50  1  0
 22 51  1  0
 24 52  1  0
M  END
>  <Energy>  (803) 
1162.0329593596227

>  <compound_id>  (803) 
14117

>  <target_id>  (803) 
1

>  <reference_id>  (803) 
53

>  <inspiration_ids>  (803) 
[53, 123]

>  <energy_score>  (803) 
1031.150894164722

>  <distance_score>  (803) 
13.300975115318739

>  <path>  (803) 
/opt/xchem-fragalysis-2/maxwin/BulkDock/SCRATCH/511024/C14117-P53/C14117-P53.minimised.mol

>  <scratch_subdir>  (803) 
/opt/xchem-fragalysis-2/maxwin/BulkDock/SCRATCH/511024/C14117-P53

>  <fragmenstein_runtime>  (803) 
46.78724241256714

>  <fragmenstein_outcome>  (803) 
too moved

>  <fragmenstein_mode>  (803) 
expansion

>  <fragmenstein_error>  (803) 


$$$$
C14117-P123
     RDKit          3D

 52 53  0  0  0  0  0  0  0  0999 V2000
  -12.9615  -18.3973   35.1069 C   0  0  0  0  0  0  0  0  0  0  0  0
  -12.6908  -17.3025   36.1196 C   0  0  0  0  0  0  0  0  0  0  0  0
  -12.6137  -15.8424   35.5840 C   0  0  0  0  0  0  0  0  0  0  0  0
  -12.5154  -14.9343   36.8474 C   0  0  0  0  0  0  0  0  0  0  0  0
  -13.9611  -15.4766   34.9101 C   0  0  0  0  0  0  0  0  0  0  0  0
  -11.3819  -15.5056   34.6161 C   0  0  0  0  0  0  0  0  0  0  0  0
  -11.8394  -15.1703   33.3323 O   0  0  0  0  0  0  0  0  0  0  0  0
   -9.9961  -16.2761   34.9774 C   0  0  0  0  0  0  0  0  0  0  0  0
   -9.7889  -16.2385   36.1791 O   0  0  0  0  0  0  0  0  0  0  0  0
   -9.2158  -16.9400   33.8784 N   0  0  0  0  0  0  0  0  0  0  0  0
   -8.0178  -17.8403   33.9417 C   0  0  0  0  0  0  0  0  0  0  0  0
   -7.2703  -17.2898   35.0793 C   0  0  0  0  0  0  0  0  0  0  0  0
   -7.2355  -15.8739   34.5433 C   0  0  0  0  0  0  0  0  0  0  0  0
   -8.0550  -15.8868   33.2342 C   0  0  0  0  0  0  0  0  0  0  0  0
   -7.7343  -14.4559   31.9193 C   0  0  0  0  0  0  0  0  0  0  0  0
   -6.2673  -13.9045   30.8173 N   0  0  0  0  0  0  0  0  0  0  0  0
   -5.3329  -12.3806   30.7938 C   0  0  0  0  0  0  0  0  0  0  0  0
   -5.5796  -11.3844   31.4562 O   0  0  0  0  0  0  0  0  0  0  0  0
   -3.7704  -12.1472   29.8967 C   0  0  0  0  0  0  0  0  0  0  0  0
   -2.5373  -10.8848   30.6545 C   0  0  0  0  0  0  0  0  0  0  0  0
   -1.2020  -10.3937   30.4042 C   0  0  0  0  0  0  0  0  0  0  0  0
   -0.9109   -9.3363   31.2999 C   0  0  0  0  0  0  0  0  0  0  0  0
   -1.9956   -8.9793   31.9683 N   0  0  0  0  0  0  0  0  0  0  0  0
   -2.8873   -9.9551   31.7134 N   0  0  0  0  0  0  0  0  0  0  0  0
  -13.8294  -18.1785   34.4818 H   0  0  0  0  0  0  0  0  0  0  0  0
  -12.0936  -18.5752   34.4765 H   0  0  0  0  0  0  0  0  0  0  0  0
  -13.1716  -19.3373   35.6241 H   0  0  0  0  0  0  0  0  0  0  0  0
  -11.7862  -17.5610   36.6799 H   0  0  0  0  0  0  0  0  0  0  0  0
  -13.5029  -17.3549   36.8589 H   0  0  0  0  0  0  0  0  0  0  0  0
  -13.3726  -15.0885   37.5137 H   0  0  0  0  0  0  0  0  0  0  0  0
  -11.6120  -15.1383   37.4295 H   0  0  0  0  0  0  0  0  0  0  0  0
  -12.5073  -13.8724   36.5756 H   0  0  0  0  0  0  0  0  0  0  0  0
  -14.1250  -16.0369   33.9842 H   0  0  0  0  0  0  0  0  0  0  0  0
  -14.8065  -15.6877   35.5753 H   0  0  0  0  0  0  0  0  0  0  0  0
  -14.0008  -14.4094   34.6623 H   0  0  0  0  0  0  0  0  0  0  0  0
  -11.1294  -14.5037   34.9437 H   0  0  0  0  0  0  0  0  0  0  0  0
  -11.9515  -16.0398   32.9074 H   0  0  0  0  0  0  0  0  0  0  0  0
   -7.3653  -17.8792   33.0609 H   0  0  0  0  0  0  0  0  0  0  0  0
   -8.3217  -18.8571   34.1439 H   0  0  0  0  0  0  0  0  0  0  0  0
   -6.3677  -17.8203   35.3107 H   0  0  0  0  0  0  0  0  0  0  0  0
   -7.8231  -17.3614   36.0212 H   0  0  0  0  0  0  0  0  0  0  0  0
   -7.5706  -15.3302   35.4221 H   0  0  0  0  0  0  0  0  0  0  0  0
   -6.3353  -15.4032   34.2526 H   0  0  0  0  0  0  0  0  0  0  0  0
   -9.0346  -15.4317   33.0385 H   0  0  0  0  0  0  0  0  0  0  0  0
   -7.7098  -13.6884   32.6908 H   0  0  0  0  0  0  0  0  0  0  0  0
   -8.5725  -14.4790   31.2748 H   0  0  0  0  0  0  0  0  0  0  0  0
   -5.9013  -14.5288   30.1215 H   0  0  0  0  0  0  0  0  0  0  0  0
   -3.8864  -11.9426   28.8522 H   0  0  0  0  0  0  0  0  0  0  0  0
   -3.2181  -13.0576   29.8112 H   0  0  0  0  0  0  0  0  0  0  0  0
   -0.5094  -10.6517   29.6189 H   0  0  0  0  0  0  0  0  0  0  0  0
   -0.0005   -8.7566   31.3945 H   0  0  0  0  0  0  0  0  0  0  0  0
   -3.7985   -9.8694   32.1519 H   0  0  0  0  0  0  0  0  0  0  0  0
  1  2  1  0
  2  3  1  0
  3  4  1  0
  3  5  1  0
  3  6  1  0
  6  7  1  0
  6  8  1  0
  8  9  2  0
  8 10  1  0
 10 11  1  0
 11 12  1  0
 12 13  1  0
 13 14  1  0
 14 15  1  0
 15 16  1  0
 16 17  1  0
 17 18  2  0
 17 19  1  0
 19 20  1  0
 20 21  2  0
 21 22  1  0
 22 23  2  0
 23 24  1  0
 14 10  1  0
 24 20  1  0
  1 25  1  0
  1 26  1  0
  1 27  1  0
  2 28  1  0
  2 29  1  0
  4 30  1  0
  4 31  1  0
  4 32  1  0
  5 33  1  0
  5 34  1  0
  5 35  1  0
  6 36  1  0
  7 37  1  0
 11 38  1  0
 11 39  1  0
 12 40  1  0
 12 41  1  0
 13 42  1  0
 13 43  1  0
 14 44  1  0
 15 45  1  0
 15 46  1  0
 16 47  1  0
 19 48  1  0
 19 49  1  0
 21 50  1  0
 22 51  1  0
 24 52  1  0
M  END
>  <Energy>  (804) 
499.43282821374362

>  <compound_id>  (804) 
14117

>  <target_id>  (804) 
1

>  <reference_id>  (804) 
123

>  <inspiration_ids>  (804) 
[53, 123]

>  <energy_score>  (804) 
368.5507630188571

>  <distance_score>  (804) 
13.525896880881849

>  <path>  (804) 
/opt/xchem-fragalysis-2/maxwin/BulkDock/SCRATCH/511024/C14117-P123/C14117-P123.minimised.mol

>  <scratch_subdir>  (804) 
/opt/xchem-fragalysis-2/maxwin/BulkDock/SCRATCH/511024/C14117-P123

>  <fragmenstein_runtime>  (804) 
26.624955415725708

>  <fragmenstein_outcome>  (804) 
too moved

>  <fragmenstein_mode>  (804) 
expansion

>  <fragmenstein_error>  (804) 


$$$$
C36373-P53
     RDKit          3D

 49 50  0  0  0  0  0  0  0  0999 V2000
   -9.7274  -25.7254   37.3991 C   0  0  0  0  0  0  0  0  0  0  0  0
  -11.2010  -25.7757   36.5648 C   0  0  0  0  0  0  0  0  0  0  0  0
  -12.7100  -24.8634   35.6279 C   0  0  0  0  0  0  0  0  0  0  0  0
  -13.4537  -25.5714   34.0614 C   0  0  0  0  0  0  0  0  0  0  0  0
  -12.8027  -26.8649   35.6372 C   0  0  0  0  0  0  0  0  0  0  0  0
  -12.4706  -22.8331   36.1634 C   0  0  0  0  0  0  0  0  0  0  0  0
  -11.2378  -22.5195   36.9629 O   0  0  0  0  0  0  0  0  0  0  0  0
  -12.7143  -20.8789   36.4323 C   0  0  0  0  0  0  0  0  0  0  0  0
  -13.8178  -20.5241   36.0562 O   0  0  0  0  0  0  0  0  0  0  0  0
  -11.5170  -19.9009   36.9554 N   0  0  0  0  0  0  0  0  0  0  0  0
  -10.4484  -19.3201   35.9872 C   0  0  0  0  0  0  0  0  0  0  0  0
   -9.3670  -18.5717   36.8014 C   0  0  0  0  0  0  0  0  0  0  0  0
  -10.2037  -17.8448   37.7785 C   0  0  0  0  0  0  0  0  0  0  0  0
  -11.5059  -18.2695   37.2216 C   0  0  0  0  0  0  0  0  0  0  0  0
  -12.0468  -17.2271   35.8039 C   0  0  0  0  0  0  0  0  0  0  0  0
  -11.3064  -16.2279   34.7234 N   0  0  0  0  0  0  0  0  0  0  0  0
   -9.9461  -16.2998   34.0845 C   0  0  0  0  0  0  0  0  0  0  0  0
   -9.1063  -17.1487   34.1508 O   0  0  0  0  0  0  0  0  0  0  0  0
   -9.3634  -14.9052   33.1750 C   0  0  0  0  0  0  0  0  0  0  0  0
   -8.1609  -14.4539   32.3757 C   0  0  0  0  0  0  0  0  0  0  0  0
   -7.5554  -13.1041   32.8266 C   0  0  0  0  0  0  0  0  0  0  0  0
   -8.7593  -12.6909   33.0107 N   0  0  0  0  0  0  0  0  0  0  0  0
   -9.6400  -13.6618   33.3644 N   0  0  0  0  0  0  0  0  0  0  0  0
   -9.8474  -24.8874   38.0938 H   0  0  0  0  0  0  0  0  0  0  0  0
   -9.5233  -26.1772   38.2334 H   0  0  0  0  0  0  0  0  0  0  0  0
   -8.6695  -25.7596   37.2374 H   0  0  0  0  0  0  0  0  0  0  0  0
  -11.2400  -26.8140   36.5235 H   0  0  0  0  0  0  0  0  0  0  0  0
  -10.8024  -25.8737   35.7216 H   0  0  0  0  0  0  0  0  0  0  0  0
  -13.9517  -26.4461   33.7099 H   0  0  0  0  0  0  0  0  0  0  0  0
  -12.8379  -26.4650   33.5788 H   0  0  0  0  0  0  0  0  0  0  0  0
  -13.9716  -24.8944   33.3861 H   0  0  0  0  0  0  0  0  0  0  0  0
  -11.9539  -27.4182   35.1484 H   0  0  0  0  0  0  0  0  0  0  0  0
  -13.1381  -27.4849   36.4356 H   0  0  0  0  0  0  0  0  0  0  0  0
  -13.4539  -27.3979   34.9818 H   0  0  0  0  0  0  0  0  0  0  0  0
  -13.3939  -22.7855   36.7870 H   0  0  0  0  0  0  0  0  0  0  0  0
  -11.5467  -22.7489   37.8635 H   0  0  0  0  0  0  0  0  0  0  0  0
   -9.8463  -20.1639   35.6418 H   0  0  0  0  0  0  0  0  0  0  0  0
  -10.7486  -18.7580   35.1040 H   0  0  0  0  0  0  0  0  0  0  0  0
   -8.7531  -17.9016   36.2087 H   0  0  0  0  0  0  0  0  0  0  0  0
   -8.6644  -19.2473   37.2856 H   0  0  0  0  0  0  0  0  0  0  0  0
  -10.0567  -16.7717   37.8221 H   0  0  0  0  0  0  0  0  0  0  0  0
  -10.1158  -18.1978   38.7978 H   0  0  0  0  0  0  0  0  0  0  0  0
  -12.3255  -18.1402   37.9407 H   0  0  0  0  0  0  0  0  0  0  0  0
  -12.7123  -17.8515   35.1947 H   0  0  0  0  0  0  0  0  0  0  0  0
  -12.6928  -16.5008   36.3157 H   0  0  0  0  0  0  0  0  0  0  0  0
  -11.7146  -15.3428   34.5243 H   0  0  0  0  0  0  0  0  0  0  0  0
   -7.4538  -14.9995   31.8087 H   0  0  0  0  0  0  0  0  0  0  0  0
   -6.6723  -12.5491   32.5317 H   0  0  0  0  0  0  0  0  0  0  0  0
   -9.0768  -11.7434   32.8552 H   0  0  0  0  0  0  0  0  0  0  0  0
  1  2  1  0
  2  3  1  0
  3  4  1  0
  3  5  1  0
  3  6  1  0
  6  7  1  0
  6  8  1  0
  8  9  2  0
  8 10  1  0
 10 11  1  0
 11 12  1  0
 12 13  1  0
 13 14  1  0
 14 15  1  0
 15 16  1  0
 16 17  1  0
 17 18  2  0
 17 19  1  0
 19 20  1  0
 20 21  2  0
 21 22  1  0
 22 23  1  0
 14 10  1  0
 23 19  2  0
  1 24  1  0
  1 25  1  0
  1 26  1  0
  2 27  1  0
  2 28  1  0
  4 29  1  0
  4 30  1  0
  4 31  1  0
  5 32  1  0
  5 33  1  0
  5 34  1  0
  6 35  1  0
  7 36  1  0
 11 37  1  0
 11 38  1  0
 12 39  1  0
 12 40  1  0
 13 41  1  0
 13 42  1  0
 14 43  1  0
 15 44  1  0
 15 45  1  0
 16 46  1  0
 20 47  1  0
 21 48  1  0
 22 49  1  0
M  END
>  <Energy>  (805) 
1067.1728272942466

>  <compound_id>  (805) 
36373

>  <target_id>  (805) 
1

>  <reference_id>  (805) 
53

>  <inspiration_ids>  (805) 
[53, 123]

>  <energy_score>  (805) 
907.0413719196087

>  <distance_score>  (805) 
16.85803765555425

>  <path>  (805) 
/opt/xchem-fragalysis-2/maxwin/BulkDock/SCRATCH/511024/C36373-P53/C36373-P53.minimised.mol

>  <scratch_subdir>  (805) 
/opt/xchem-fragalysis-2/maxwin/BulkDock/SCRATCH/511024/C36373-P53

>  <fragmenstein_runtime>  (805) 
36.61275291442871

>  <fragmenstein_outcome>  (805) 
too moved

>  <fragmenstein_mode>  (805) 
expansion

>  <fragmenstein_error>  (805) 


$$$$
C36373-P123
     RDKit          3D

 49 50  0  0  0  0  0  0  0  0999 V2000
   -9.8419  -27.8519   36.8583 C   0  0  0  0  0  0  0  0  0  0  0  0
  -10.7048  -26.5919   35.2076 C   0  0  0  0  0  0  0  0  0  0  0  0
  -10.9168  -24.9566   33.9261 C   0  0  0  0  0  0  0  0  0  0  0  0
   -9.4600  -24.7753   33.3759 C   0  0  0  0  0  0  0  0  0  0  0  0
  -11.4769  -25.5171   32.5729 C   0  0  0  0  0  0  0  0  0  0  0  0
  -11.8190  -23.1121   33.8505 C   0  0  0  0  0  0  0  0  0  0  0  0
  -13.2120  -23.5098   33.6170 O   0  0  0  0  0  0  0  0  0  0  0  0
  -11.8834  -21.1280   33.2783 C   0  0  0  0  0  0  0  0  0  0  0  0
  -12.9124  -20.6495   32.9036 O   0  0  0  0  0  0  0  0  0  0  0  0
  -10.3871  -20.4370   33.4859 N   0  0  0  0  0  0  0  0  0  0  0  0
   -9.6699  -20.5600   32.3626 C   0  0  0  0  0  0  0  0  0  0  0  0
   -8.2526  -20.7891   33.1695 C   0  0  0  0  0  0  0  0  0  0  0  0
   -8.1841  -19.4076   33.8495 C   0  0  0  0  0  0  0  0  0  0  0  0
   -9.7639  -18.7181   33.3699 C   0  0  0  0  0  0  0  0  0  0  0  0
   -8.8986  -17.2641   34.1898 C   0  0  0  0  0  0  0  0  0  0  0  0
   -7.9652  -16.3484   33.2967 N   0  0  0  0  0  0  0  0  0  0  0  0
   -8.2817  -15.0839   32.4802 C   0  0  0  0  0  0  0  0  0  0  0  0
   -9.2902  -14.5010   32.4320 O   0  0  0  0  0  0  0  0  0  0  0  0
   -7.1312  -14.3790   31.3211 C   0  0  0  0  0  0  0  0  0  0  0  0
   -5.9874  -14.7286   30.5397 C   0  0  0  0  0  0  0  0  0  0  0  0
   -5.6235  -13.4731   30.0755 C   0  0  0  0  0  0  0  0  0  0  0  0
   -6.6827  -13.7521   29.2770 N   0  0  0  0  0  0  0  0  0  0  0  0
   -7.5902  -13.8896   30.2034 N   0  0  0  0  0  0  0  0  0  0  0  0
  -10.4511  -28.6392   37.6198 H   0  0  0  0  0  0  0  0  0  0  0  0
   -8.9410  -28.6059   37.2349 H   0  0  0  0  0  0  0  0  0  0  0  0
   -9.5801  -28.9760   36.2494 H   0  0  0  0  0  0  0  0  0  0  0  0
  -10.1572  -25.6220   35.4878 H   0  0  0  0  0  0  0  0  0  0  0  0
  -11.7496  -26.4493   35.4922 H   0  0  0  0  0  0  0  0  0  0  0  0
   -9.1954  -25.3922   32.5083 H   0  0  0  0  0  0  0  0  0  0  0  0
   -8.8006  -25.1075   34.1665 H   0  0  0  0  0  0  0  0  0  0  0  0
   -9.2512  -23.7478   33.0863 H   0  0  0  0  0  0  0  0  0  0  0  0
  -11.1609  -26.5464   32.3759 H   0  0  0  0  0  0  0  0  0  0  0  0
  -11.1685  -24.9026   31.7148 H   0  0  0  0  0  0  0  0  0  0  0  0
  -12.5403  -25.4562   32.5537 H   0  0  0  0  0  0  0  0  0  0  0  0
  -11.9030  -22.9450   34.9299 H   0  0  0  0  0  0  0  0  0  0  0  0
  -13.4678  -23.2681   32.7054 H   0  0  0  0  0  0  0  0  0  0  0  0
  -10.1710  -20.0068   31.6268 H   0  0  0  0  0  0  0  0  0  0  0  0
  -10.0209  -21.5221   31.9592 H   0  0  0  0  0  0  0  0  0  0  0  0
   -8.1777  -21.6719   33.7724 H   0  0  0  0  0  0  0  0  0  0  0  0
   -7.3229  -21.1325   32.6847 H   0  0  0  0  0  0  0  0  0  0  0  0
   -7.9862  -19.4579   34.9211 H   0  0  0  0  0  0  0  0  0  0  0  0
   -7.3392  -18.7790   33.5399 H   0  0  0  0  0  0  0  0  0  0  0  0
  -10.5661  -18.3502   34.1130 H   0  0  0  0  0  0  0  0  0  0  0  0
   -8.3965  -17.4904   35.1363 H   0  0  0  0  0  0  0  0  0  0  0  0
   -9.7313  -16.5877   34.4280 H   0  0  0  0  0  0  0  0  0  0  0  0
   -6.9815  -16.5686   33.1953 H   0  0  0  0  0  0  0  0  0  0  0  0
   -5.6071  -15.7323   30.3152 H   0  0  0  0  0  0  0  0  0  0  0  0
   -4.7615  -12.8769   29.7987 H   0  0  0  0  0  0  0  0  0  0  0  0
   -7.0074  -13.5156   28.3343 H   0  0  0  0  0  0  0  0  0  0  0  0
  1  2  1  0
  2  3  1  0
  3  4  1  0
  3  5  1  0
  3  6  1  0
  6  7  1  0
  6  8  1  0
  8  9  2  0
  8 10  1  0
 10 11  1  0
 11 12  1  0
 12 13  1  0
 13 14  1  0
 14 15  1  0
 15 16  1  0
 16 17  1  0
 17 18  2  0
 17 19  1  0
 19 20  1  0
 20 21  2  0
 21 22  1  0
 22 23  1  0
 14 10  1  0
 23 19  2  0
  1 24  1  0
  1 25  1  0
  1 26  1  0
  2 27  1  0
  2 28  1  0
  4 29  1  0
  4 30  1  0
  4 31  1  0
  5 32  1  0
  5 33  1  0
  5 34  1  0
  6 35  1  0
  7 36  1  0
 11 37  1  0
 11 38  1  0
 12 39  1  0
 12 40  1  0
 13 41  1  0
 13 42  1  0
 14 43  1  0
 15 44  1  0
 15 45  1  0
 16 46  1  0
 20 47  1  0
 21 48  1  0
 22 49  1  0
M  END
>  <Energy>  (806) 
1108.2275007640451

>  <compound_id>  (806) 
36373

>  <target_id>  (806) 
1

>  <reference_id>  (806) 
123

>  <inspiration_ids>  (806) 
[53, 123]

>  <energy_score>  (806) 
948.0960453894296

>  <distance_score>  (806) 
15.277136803544325

>  <path>  (806) 
/opt/xchem-fragalysis-2/maxwin/BulkDock/SCRATCH/511024/C36373-P123/C36373-P123.minimised.mol

>  <scratch_subdir>  (806) 
/opt/xchem-fragalysis-2/maxwin/BulkDock/SCRATCH/511024/C36373-P123

>  <fragmenstein_runtime>  (806) 
29.665151357650757

>  <fragmenstein_outcome>  (806) 
too moved

>  <fragmenstein_mode>  (806) 
expansion

>  <fragmenstein_error>  (806) 


$$$$
C14119-P53
     RDKit          3D

 50 51  0  0  0  0  0  0  0  0999 V2000
   -2.5074    1.5460   26.6240 C   0  0  0  0  0  0  0  0  0  0  0  0
   -1.7485    1.4347   27.9430 C   0  0  0  0  0  0  0  0  0  0  0  0
   -0.2433    1.5341   27.7330 C   0  0  0  0  0  0  0  0  0  0  0  0
    0.2036    0.0866   27.7296 C   0  0  0  0  0  0  0  0  0  0  0  0
   -0.6001   -0.5082   28.7948 N   0  0  0  0  0  0  0  0  0  0  0  0
   -0.6155   -1.9889   28.6931 C   0  0  0  0  0  0  0  0  0  0  0  0
   -1.0993   -2.6790   30.0122 C   0  0  0  0  0  0  0  0  0  0  0  0
   -1.6872   -2.0524   30.8488 O   0  0  0  0  0  0  0  0  0  0  0  0
   -0.6282   -4.0520   30.0164 N   0  0  0  0  0  0  0  0  0  0  0  0
   -0.6368   -5.0476   31.0554 C   0  0  0  0  0  0  0  0  0  0  0  0
   -0.7643   -6.5712   30.7272 C   0  0  0  0  0  0  0  0  0  0  0  0
   -2.1914   -7.1909   30.4556 N   0  0  0  0  0  0  0  0  0  0  0  0
   -1.3639   -8.5667   30.8223 C   0  0  0  0  0  0  0  0  0  0  0  0
   -3.0959   -7.3683   28.9752 C   0  0  0  0  0  0  0  0  0  0  0  0
   -2.6540   -7.0911   27.8695 O   0  0  0  0  0  0  0  0  0  0  0  0
   -5.1165   -7.9144   28.8689 C   0  0  0  0  0  0  0  0  0  0  0  0
   -6.6250   -9.2535   29.0810 C   0  0  0  0  0  0  0  0  0  0  0  0
   -7.1724  -10.3761   30.2478 C   0  0  0  0  0  0  0  0  0  0  0  0
   -8.4889  -10.7455   31.2768 C   0  0  0  0  0  0  0  0  0  0  0  0
   -8.0814  -11.7029   32.4578 C   0  0  0  0  0  0  0  0  0  0  0  0
   -6.8091  -11.9046   32.5769 N   0  0  0  0  0  0  0  0  0  0  0  0
   -6.3970  -11.6709   31.3373 N   0  0  0  0  0  0  0  0  0  0  0  0
   -1.9462    0.0624   28.6141 C   0  0  0  0  0  0  0  0  0  0  0  0
   -2.2373    0.7352   25.9418 H   0  0  0  0  0  0  0  0  0  0  0  0
   -2.2861    2.4963   26.1268 H   0  0  0  0  0  0  0  0  0  0  0  0
   -3.5874    1.5048   26.7921 H   0  0  0  0  0  0  0  0  0  0  0  0
   -2.0806    2.2495   28.5909 H   0  0  0  0  0  0  0  0  0  0  0  0
    0.2143    2.0649   28.5776 H   0  0  0  0  0  0  0  0  0  0  0  0
    0.0386    2.0579   26.8144 H   0  0  0  0  0  0  0  0  0  0  0  0
   -0.0289   -0.3664   26.7670 H   0  0  0  0  0  0  0  0  0  0  0  0
    1.2769   -0.0069   27.9205 H   0  0  0  0  0  0  0  0  0  0  0  0
    0.4169   -2.3210   28.5223 H   0  0  0  0  0  0  0  0  0  0  0  0
   -1.2256   -2.3372   27.8570 H   0  0  0  0  0  0  0  0  0  0  0  0
   -0.0962   -4.2223   29.1686 H   0  0  0  0  0  0  0  0  0  0  0  0
   -1.3651   -4.7490   31.8104 H   0  0  0  0  0  0  0  0  0  0  0  0
    0.3419   -4.9114   31.5361 H   0  0  0  0  0  0  0  0  0  0  0  0
   -0.3708   -6.8975   31.6985 H   0  0  0  0  0  0  0  0  0  0  0  0
   -0.0889   -6.8122   29.9062 H   0  0  0  0  0  0  0  0  0  0  0  0
   -2.0792   -9.2542   31.2772 H   0  0  0  0  0  0  0  0  0  0  0  0
   -0.8787   -8.9716   29.9242 H   0  0  0  0  0  0  0  0  0  0  0  0
   -0.6503   -8.5611   31.6574 H   0  0  0  0  0  0  0  0  0  0  0  0
   -5.7500   -7.0301   29.0541 H   0  0  0  0  0  0  0  0  0  0  0  0
   -5.1036   -8.0047   27.7735 H   0  0  0  0  0  0  0  0  0  0  0  0
   -6.3845  -10.2470   28.9146 H   0  0  0  0  0  0  0  0  0  0  0  0
   -7.4083   -9.0785   28.3651 H   0  0  0  0  0  0  0  0  0  0  0  0
   -9.4772  -10.5003   30.9675 H   0  0  0  0  0  0  0  0  0  0  0  0
   -8.6975  -12.3193   33.0570 H   0  0  0  0  0  0  0  0  0  0  0  0
   -6.2730  -12.6351   31.0164 H   0  0  0  0  0  0  0  0  0  0  0  0
   -2.4275    0.1798   29.5898 H   0  0  0  0  0  0  0  0  0  0  0  0
   -2.5812   -0.5795   27.9932 H   0  0  0  0  0  0  0  0  0  0  0  0
  1  2  1  0
  2  3  1  0
  3  4  1  0
  4  5  1  0
  5  6  1  0
  6  7  1  0
  7  8  2  0
  7  9  1  0
  9 10  1  0
 10 11  1  0
 11 12  1  0
 12 13  1  0
 12 14  1  0
 14 15  2  0
 14 16  1  0
 16 17  1  0
 17 18  1  0
 18 19  2  0
 19 20  1  0
 20 21  2  0
 21 22  1  0
  5 23  1  0
 23  2  1  0
 22 18  1  0
  1 24  1  0
  1 25  1  0
  1 26  1  0
  2 27  1  0
  3 28  1  0
  3 29  1  0
  4 30  1  0
  4 31  1  0
  6 32  1  0
  6 33  1  0
  9 34  1  0
 10 35  1  0
 10 36  1  0
 11 37  1  0
 11 38  1  0
 13 39  1  0
 13 40  1  0
 13 41  1  0
 16 42  1  0
 16 43  1  0
 17 44  1  0
 17 45  1  0
 19 46  1  0
 20 47  1  0
 22 48  1  0
 23 49  1  0
 23 50  1  0
M  END
>  <Energy>  (807) 
590.31593998145513

>  <compound_id>  (807) 
14119

>  <target_id>  (807) 
1

>  <reference_id>  (807) 
53

>  <inspiration_ids>  (807) 
[53, 123]

>  <energy_score>  (807) 
495.5401298049652

>  <distance_score>  (807) 
10.503086771295907

>  <path>  (807) 
/opt/xchem-fragalysis-2/maxwin/BulkDock/SCRATCH/511024/C14119-P53/C14119-P53.minimised.mol

>  <scratch_subdir>  (807) 
/opt/xchem-fragalysis-2/maxwin/BulkDock/SCRATCH/511024/C14119-P53

>  <fragmenstein_runtime>  (807) 
42.751532316207886

>  <fragmenstein_outcome>  (807) 
too moved

>  <fragmenstein_mode>  (807) 
expansion

>  <fragmenstein_error>  (807) 


$$$$
C14119-P123
     RDKit          3D

 50 51  0  0  0  0  0  0  0  0999 V2000
   -0.1743   -1.0178   28.5039 C   0  0  0  0  0  0  0  0  0  0  0  0
   -1.1128   -1.8149   29.3985 C   0  0  0  0  0  0  0  0  0  0  0  0
   -1.5145   -1.0439   30.6536 C   0  0  0  0  0  0  0  0  0  0  0  0
   -1.0020   -1.8923   31.8060 C   0  0  0  0  0  0  0  0  0  0  0  0
   -0.9994   -3.2703   31.2823 N   0  0  0  0  0  0  0  0  0  0  0  0
   -0.1072   -4.1239   32.1095 C   0  0  0  0  0  0  0  0  0  0  0  0
   -0.1120   -5.6107   31.6513 C   0  0  0  0  0  0  0  0  0  0  0  0
    0.7678   -6.0080   30.9415 O   0  0  0  0  0  0  0  0  0  0  0  0
   -1.2316   -6.3011   32.2355 N   0  0  0  0  0  0  0  0  0  0  0  0
   -1.7012   -7.6713   32.0719 C   0  0  0  0  0  0  0  0  0  0  0  0
   -2.1944   -8.3168   33.3916 C   0  0  0  0  0  0  0  0  0  0  0  0
   -3.2252   -9.4515   33.1454 N   0  0  0  0  0  0  0  0  0  0  0  0
   -3.5892   -9.1157   34.6228 C   0  0  0  0  0  0  0  0  0  0  0  0
   -4.4570   -9.5030   32.3027 C   0  0  0  0  0  0  0  0  0  0  0  0
   -4.9182   -8.5942   31.7190 O   0  0  0  0  0  0  0  0  0  0  0  0
   -5.4639  -11.1526   31.8721 C   0  0  0  0  0  0  0  0  0  0  0  0
   -6.9703  -12.4529   32.0105 C   0  0  0  0  0  0  0  0  0  0  0  0
   -7.7630  -14.2842   32.4254 C   0  0  0  0  0  0  0  0  0  0  0  0
   -7.3360  -15.5892   33.3417 C   0  0  0  0  0  0  0  0  0  0  0  0
   -8.4052  -16.4250   33.6630 C   0  0  0  0  0  0  0  0  0  0  0  0
   -9.5015  -15.9391   33.1040 N   0  0  0  0  0  0  0  0  0  0  0  0
   -9.1000  -14.7223   32.5266 N   0  0  0  0  0  0  0  0  0  0  0  0
   -0.4578   -3.1047   29.9151 C   0  0  0  0  0  0  0  0  0  0  0  0
    0.6981   -0.6578   29.0602 H   0  0  0  0  0  0  0  0  0  0  0  0
   -0.6880   -0.1476   28.0825 H   0  0  0  0  0  0  0  0  0  0  0  0
    0.1906   -1.6352   27.6797 H   0  0  0  0  0  0  0  0  0  0  0  0
   -2.0167   -2.0633   28.8303 H   0  0  0  0  0  0  0  0  0  0  0  0
   -1.1069   -0.0283   30.6912 H   0  0  0  0  0  0  0  0  0  0  0  0
   -2.6034   -0.9611   30.7128 H   0  0  0  0  0  0  0  0  0  0  0  0
    0.0092   -1.5612   32.0778 H   0  0  0  0  0  0  0  0  0  0  0  0
   -1.6430   -1.7998   32.6887 H   0  0  0  0  0  0  0  0  0  0  0  0
   -0.4314   -4.0892   33.1576 H   0  0  0  0  0  0  0  0  0  0  0  0
    0.9316   -3.7684   32.0957 H   0  0  0  0  0  0  0  0  0  0  0  0
   -1.8209   -5.6292   32.7137 H   0  0  0  0  0  0  0  0  0  0  0  0
   -0.9225   -8.2618   31.5892 H   0  0  0  0  0  0  0  0  0  0  0  0
   -2.5283   -7.5910   31.3753 H   0  0  0  0  0  0  0  0  0  0  0  0
   -2.5239   -7.4402   33.9664 H   0  0  0  0  0  0  0  0  0  0  0  0
   -1.3200   -8.7583   33.8923 H   0  0  0  0  0  0  0  0  0  0  0  0
   -2.7948   -9.4341   35.3128 H   0  0  0  0  0  0  0  0  0  0  0  0
   -3.9704   -8.1120   34.8376 H   0  0  0  0  0  0  0  0  0  0  0  0
   -4.4681   -9.7052   34.8894 H   0  0  0  0  0  0  0  0  0  0  0  0
   -5.8959  -10.6792   32.7478 H   0  0  0  0  0  0  0  0  0  0  0  0
   -5.8702  -10.8660   30.9197 H   0  0  0  0  0  0  0  0  0  0  0  0
   -7.9358  -11.8323   32.5173 H   0  0  0  0  0  0  0  0  0  0  0  0
   -7.4666  -11.6319   31.5817 H   0  0  0  0  0  0  0  0  0  0  0  0
   -6.3597  -15.7714   33.7679 H   0  0  0  0  0  0  0  0  0  0  0  0
   -8.4327  -17.3232   34.2643 H   0  0  0  0  0  0  0  0  0  0  0  0
   -9.6176  -14.0110   32.9907 H   0  0  0  0  0  0  0  0  0  0  0  0
    0.6351   -2.9989   29.9278 H   0  0  0  0  0  0  0  0  0  0  0  0
   -0.7096   -3.9579   29.2772 H   0  0  0  0  0  0  0  0  0  0  0  0
  1  2  1  0
  2  3  1  0
  3  4  1  0
  4  5  1  0
  5  6  1  0
  6  7  1  0
  7  8  2  0
  7  9  1  0
  9 10  1  0
 10 11  1  0
 11 12  1  0
 12 13  1  0
 12 14  1  0
 14 15  2  0
 14 16  1  0
 16 17  1  0
 17 18  1  0
 18 19  2  0
 19 20  1  0
 20 21  2  0
 21 22  1  0
  5 23  1  0
 23  2  1  0
 22 18  1  0
  1 24  1  0
  1 25  1  0
  1 26  1  0
  2 27  1  0
  3 28  1  0
  3 29  1  0
  4 30  1  0
  4 31  1  0
  6 32  1  0
  6 33  1  0
  9 34  1  0
 10 35  1  0
 10 36  1  0
 11 37  1  0
 11 38  1  0
 13 39  1  0
 13 40  1  0
 13 41  1  0
 16 42  1  0
 16 43  1  0
 17 44  1  0
 17 45  1  0
 19 46  1  0
 20 47  1  0
 22 48  1  0
 23 49  1  0
 23 50  1  0
M  END
>  <Energy>  (808) 
551.80172933848257

>  <compound_id>  (808) 
14119

>  <target_id>  (808) 
1

>  <reference_id>  (808) 
123

>  <inspiration_ids>  (808) 
[53, 123]

>  <energy_score>  (808) 
457.0259191620029

>  <distance_score>  (808) 
10.798072428220706

>  <path>  (808) 
/opt/xchem-fragalysis-2/maxwin/BulkDock/SCRATCH/511024/C14119-P123/C14119-P123.minimised.mol

>  <scratch_subdir>  (808) 
/opt/xchem-fragalysis-2/maxwin/BulkDock/SCRATCH/511024/C14119-P123

>  <fragmenstein_runtime>  (808) 
33.38880515098572

>  <fragmenstein_outcome>  (808) 
too moved

>  <fragmenstein_mode>  (808) 
expansion

>  <fragmenstein_error>  (808) 


$$$$
C36374-P53
     RDKit          3D

 54 55  0  0  0  0  0  0  0  0999 V2000
   -5.0412   -0.6833   34.5967 C   0  0  0  0  0  0  0  0  0  0  0  0
   -4.9454   -0.8903   33.0842 C   0  0  0  0  0  0  0  0  0  0  0  0
   -4.2415   -2.1949   32.6810 C   0  0  0  0  0  0  0  0  0  0  0  0
   -3.0498   -2.1657   31.6654 C   0  0  0  0  0  0  0  0  0  0  0  0
   -2.4114   -0.8210   31.2472 C   0  0  0  0  0  0  0  0  0  0  0  0
   -1.5781   -0.9700   29.9666 C   0  0  0  0  0  0  0  0  0  0  0  0
   -1.5314   -0.2677   32.3700 C   0  0  0  0  0  0  0  0  0  0  0  0
   -5.2968   -3.3852   32.6460 C   0  0  0  0  0  0  0  0  0  0  0  0
   -5.8142   -3.6092   33.7184 O   0  0  0  0  0  0  0  0  0  0  0  0
   -5.4197   -4.1153   31.3310 N   0  0  0  0  0  0  0  0  0  0  0  0
   -6.4829   -3.5567   30.5607 C   0  0  0  0  0  0  0  0  0  0  0  0
   -6.3169   -5.7479   30.8894 C   0  0  0  0  0  0  0  0  0  0  0  0
   -6.6997   -7.5424   31.6298 C   0  0  0  0  0  0  0  0  0  0  0  0
   -8.4279   -8.1746   32.8057 C   0  0  0  0  0  0  0  0  0  0  0  0
   -8.5924  -10.2747   31.7796 C   0  0  0  0  0  0  0  0  0  0  0  0
   -7.0108  -11.5059   31.6288 N   0  0  0  0  0  0  0  0  0  0  0  0
   -6.8997  -13.3152   30.9528 C   0  0  0  0  0  0  0  0  0  0  0  0
   -6.6404  -13.7432   29.8233 O   0  0  0  0  0  0  0  0  0  0  0  0
   -7.4596  -14.6392   31.9826 C   0  0  0  0  0  0  0  0  0  0  0  0
   -7.8827  -16.3427   32.3244 C   0  0  0  0  0  0  0  0  0  0  0  0
   -9.2563  -16.3283   33.2843 C   0  0  0  0  0  0  0  0  0  0  0  0
   -9.6221  -15.0714   33.1151 N   0  0  0  0  0  0  0  0  0  0  0  0
   -8.6571  -14.1509   32.7420 N   0  0  0  0  0  0  0  0  0  0  0  0
   -6.5825   -9.5846   30.5078 C   0  0  0  0  0  0  0  0  0  0  0  0
   -5.5251    0.2754   34.8107 H   0  0  0  0  0  0  0  0  0  0  0  0
   -4.0474   -0.6655   35.0553 H   0  0  0  0  0  0  0  0  0  0  0  0
   -5.6301   -1.4689   35.0773 H   0  0  0  0  0  0  0  0  0  0  0  0
   -5.9677   -0.8526   32.6976 H   0  0  0  0  0  0  0  0  0  0  0  0
   -4.3887   -0.0550   32.7017 H   0  0  0  0  0  0  0  0  0  0  0  0
   -3.6748   -2.4277   33.5920 H   0  0  0  0  0  0  0  0  0  0  0  0
   -3.3078   -2.7159   30.7763 H   0  0  0  0  0  0  0  0  0  0  0  0
   -2.2480   -2.7868   32.0940 H   0  0  0  0  0  0  0  0  0  0  0  0
   -3.1925   -0.1016   31.0075 H   0  0  0  0  0  0  0  0  0  0  0  0
   -2.1920   -1.3254   29.1331 H   0  0  0  0  0  0  0  0  0  0  0  0
   -1.1437   -0.0086   29.6725 H   0  0  0  0  0  0  0  0  0  0  0  0
   -0.7597   -1.6837   30.1104 H   0  0  0  0  0  0  0  0  0  0  0  0
   -1.0654    0.6768   32.0719 H   0  0  0  0  0  0  0  0  0  0  0  0
   -2.1093   -0.0818   33.2797 H   0  0  0  0  0  0  0  0  0  0  0  0
   -0.7263   -0.9668   32.6218 H   0  0  0  0  0  0  0  0  0  0  0  0
   -6.2150   -3.6706   29.5023 H   0  0  0  0  0  0  0  0  0  0  0  0
   -6.5390   -2.5819   31.0540 H   0  0  0  0  0  0  0  0  0  0  0  0
   -7.5591   -3.5605   30.6650 H   0  0  0  0  0  0  0  0  0  0  0  0
   -5.8106   -5.8689   31.7513 H   0  0  0  0  0  0  0  0  0  0  0  0
   -5.9487   -5.8477   29.8210 H   0  0  0  0  0  0  0  0  0  0  0  0
   -5.7792   -7.4517   32.2453 H   0  0  0  0  0  0  0  0  0  0  0  0
   -8.1579   -7.6701   33.7375 H   0  0  0  0  0  0  0  0  0  0  0  0
   -9.3339   -7.5046   32.6681 H   0  0  0  0  0  0  0  0  0  0  0  0
   -9.3083  -10.9061   32.2334 H   0  0  0  0  0  0  0  0  0  0  0  0
   -9.0220  -10.3642   30.7380 H   0  0  0  0  0  0  0  0  0  0  0  0
   -7.1711  -17.2032   32.3104 H   0  0  0  0  0  0  0  0  0  0  0  0
   -9.7100  -17.1119   33.8870 H   0  0  0  0  0  0  0  0  0  0  0  0
  -10.4847  -14.6837   33.4651 H   0  0  0  0  0  0  0  0  0  0  0  0
   -7.5396   -9.8012   29.9419 H   0  0  0  0  0  0  0  0  0  0  0  0
   -6.4865   -9.5247   29.3964 H   0  0  0  0  0  0  0  0  0  0  0  0
  1  2  1  0
  2  3  1  0
  3  4  1  0
  4  5  1  0
  5  6  1  0
  5  7  1  0
  3  8  1  0
  8  9  2  0
  8 10  1  0
 10 11  1  0
 10 12  1  0
 12 13  1  0
 13 14  1  0
 14 15  1  0
 15 16  1  0
 16 17  1  0
 17 18  2  0
 17 19  1  0
 19 20  1  0
 20 21  2  0
 21 22  1  0
 22 23  1  0
 16 24  1  0
 24 13  1  0
 23 19  2  0
  1 25  1  0
  1 26  1  0
  1 27  1  0
  2 28  1  0
  2 29  1  0
  3 30  1  0
  4 31  1  0
  4 32  1  0
  5 33  1  0
  6 34  1  0
  6 35  1  0
  6 36  1  0
  7 37  1  0
  7 38  1  0
  7 39  1  0
 11 40  1  0
 11 41  1  0
 11 42  1  0
 12 43  1  0
 12 44  1  0
 13 45  1  0
 14 46  1  0
 14 47  1  0
 15 48  1  0
 15 49  1  0
 20 50  1  0
 21 51  1  0
 22 52  1  0
 24 53  1  0
 24 54  1  0
M  END
>  <Energy>  (809) 
1526.3447279411005

>  <compound_id>  (809) 
36374

>  <target_id>  (809) 
1

>  <reference_id>  (809) 
53

>  <inspiration_ids>  (809) 
[53, 123]

>  <energy_score>  (809) 
1402.9077841116787

>  <distance_score>  (809) 
10.738848531456036

>  <path>  (809) 
/opt/xchem-fragalysis-2/maxwin/BulkDock/SCRATCH/511024/C36374-P53/C36374-P53.minimised.mol

>  <scratch_subdir>  (809) 
/opt/xchem-fragalysis-2/maxwin/BulkDock/SCRATCH/511024/C36374-P53

>  <fragmenstein_runtime>  (809) 
39.59255385398865

>  <fragmenstein_outcome>  (809) 
too moved

>  <fragmenstein_mode>  (809) 
expansion

>  <fragmenstein_error>  (809) 


$$$$
C36374-P123
     RDKit          3D

 54 55  0  0  0  0  0  0  0  0999 V2000
   -0.4558   -1.7124   28.0792 C   0  0  0  0  0  0  0  0  0  0  0  0
   -1.4148   -0.5354   28.1618 C   0  0  0  0  0  0  0  0  0  0  0  0
   -2.6392   -0.3686   27.1170 C   0  0  0  0  0  0  0  0  0  0  0  0
   -2.7844    1.2236   27.2554 C   0  0  0  0  0  0  0  0  0  0  0  0
   -3.2311    2.1873   26.1511 C   0  0  0  0  0  0  0  0  0  0  0  0
   -2.6023    3.5781   26.3813 C   0  0  0  0  0  0  0  0  0  0  0  0
   -4.7203    2.3761   26.0156 C   0  0  0  0  0  0  0  0  0  0  0  0
   -3.5416   -2.0008   26.9893 C   0  0  0  0  0  0  0  0  0  0  0  0
   -3.4175   -2.6175   25.9661 O   0  0  0  0  0  0  0  0  0  0  0  0
   -4.2353   -2.3712   28.2914 N   0  0  0  0  0  0  0  0  0  0  0  0
   -3.2408   -2.9945   29.2058 C   0  0  0  0  0  0  0  0  0  0  0  0
   -5.4064   -4.0117   28.8054 C   0  0  0  0  0  0  0  0  0  0  0  0
   -6.0132   -6.0178   29.3983 C   0  0  0  0  0  0  0  0  0  0  0  0
   -6.5699   -6.8036   31.2973 C   0  0  0  0  0  0  0  0  0  0  0  0
   -5.8293   -8.7898   31.0428 C   0  0  0  0  0  0  0  0  0  0  0  0
   -6.1946   -9.7894   29.6702 N   0  0  0  0  0  0  0  0  0  0  0  0
   -5.3938  -11.6743   29.5660 C   0  0  0  0  0  0  0  0  0  0  0  0
   -4.2654  -11.8573   29.0244 O   0  0  0  0  0  0  0  0  0  0  0  0
   -6.0910  -13.2944   29.9425 C   0  0  0  0  0  0  0  0  0  0  0  0
   -6.9108  -13.9195   28.7998 C   0  0  0  0  0  0  0  0  0  0  0  0
   -6.4398  -15.2187   28.8363 C   0  0  0  0  0  0  0  0  0  0  0  0
   -5.8110  -15.3676   30.0443 N   0  0  0  0  0  0  0  0  0  0  0  0
   -6.1947  -14.2932   30.7535 N   0  0  0  0  0  0  0  0  0  0  0  0
   -5.5737   -8.0468   28.9198 C   0  0  0  0  0  0  0  0  0  0  0  0
   -0.9194   -2.6440   27.7746 H   0  0  0  0  0  0  0  0  0  0  0  0
    0.0048   -1.8784   29.0599 H   0  0  0  0  0  0  0  0  0  0  0  0
    0.3671   -1.4902   27.3951 H   0  0  0  0  0  0  0  0  0  0  0  0
   -1.8187   -0.4251   29.1762 H   0  0  0  0  0  0  0  0  0  0  0  0
   -0.7163    0.3094   28.0983 H   0  0  0  0  0  0  0  0  0  0  0  0
   -2.1697   -0.3267   26.1459 H   0  0  0  0  0  0  0  0  0  0  0  0
   -3.0699    1.5768   28.2481 H   0  0  0  0  0  0  0  0  0  0  0  0
   -1.7343    1.5524   27.2773 H   0  0  0  0  0  0  0  0  0  0  0  0
   -2.8054    1.8563   25.2122 H   0  0  0  0  0  0  0  0  0  0  0  0
   -2.9025    4.0050   27.3425 H   0  0  0  0  0  0  0  0  0  0  0  0
   -1.5079    3.5240   26.3660 H   0  0  0  0  0  0  0  0  0  0  0  0
   -2.8964    4.2740   25.5881 H   0  0  0  0  0  0  0  0  0  0  0  0
   -4.9406    3.1313   25.2575 H   0  0  0  0  0  0  0  0  0  0  0  0
   -5.2230    1.4681   25.7127 H   0  0  0  0  0  0  0  0  0  0  0  0
   -5.1683    2.7124   26.9394 H   0  0  0  0  0  0  0  0  0  0  0  0
   -2.3434   -3.5934   28.9748 H   0  0  0  0  0  0  0  0  0  0  0  0
   -3.3922   -2.8025   30.3142 H   0  0  0  0  0  0  0  0  0  0  0  0
   -2.5664   -2.1431   29.2391 H   0  0  0  0  0  0  0  0  0  0  0  0
   -5.6437   -3.6232   29.8349 H   0  0  0  0  0  0  0  0  0  0  0  0
   -6.3687   -3.5920   28.4665 H   0  0  0  0  0  0  0  0  0  0  0  0
   -6.6107   -5.8635   28.5164 H   0  0  0  0  0  0  0  0  0  0  0  0
   -5.9285   -7.0369   32.0875 H   0  0  0  0  0  0  0  0  0  0  0  0
   -7.4918   -6.7272   31.8686 H   0  0  0  0  0  0  0  0  0  0  0  0
   -5.4636   -9.5191   31.8915 H   0  0  0  0  0  0  0  0  0  0  0  0
   -4.7281   -8.5365   31.1662 H   0  0  0  0  0  0  0  0  0  0  0  0
   -7.3342  -13.5075   27.8918 H   0  0  0  0  0  0  0  0  0  0  0  0
   -6.9676  -16.0891   28.4442 H   0  0  0  0  0  0  0  0  0  0  0  0
   -5.5429  -16.2538   30.4715 H   0  0  0  0  0  0  0  0  0  0  0  0
   -5.4909   -8.2689   27.8565 H   0  0  0  0  0  0  0  0  0  0  0  0
   -4.5321   -7.8902   29.1001 H   0  0  0  0  0  0  0  0  0  0  0  0
  1  2  1  0
  2  3  1  0
  3  4  1  0
  4  5  1  0
  5  6  1  0
  5  7  1  0
  3  8  1  0
  8  9  2  0
  8 10  1  0
 10 11  1  0
 10 12  1  0
 12 13  1  0
 13 14  1  0
 14 15  1  0
 15 16  1  0
 16 17  1  0
 17 18  2  0
 17 19  1  0
 19 20  1  0
 20 21  2  0
 21 22  1  0
 22 23  1  0
 16 24  1  0
 24 13  1  0
 23 19  2  0
  1 25  1  0
  1 26  1  0
  1 27  1  0
  2 28  1  0
  2 29  1  0
  3 30  1  0
  4 31  1  0
  4 32  1  0
  5 33  1  0
  6 34  1  0
  6 35  1  0
  6 36  1  0
  7 37  1  0
  7 38  1  0
  7 39  1  0
 11 40  1  0
 11 41  1  0
 11 42  1  0
 12 43  1  0
 12 44  1  0
 13 45  1  0
 14 46  1  0
 14 47  1  0
 15 48  1  0
 15 49  1  0
 20 50  1  0
 21 51  1  0
 22 52  1  0
 24 53  1  0
 24 54  1  0
M  END
>  <Energy>  (810) 
1280.5732415476534

>  <compound_id>  (810) 
36374

>  <target_id>  (810) 
1

>  <reference_id>  (810) 
123

>  <inspiration_ids>  (810) 
[53, 123]

>  <energy_score>  (810) 
1157.1362977182139

>  <distance_score>  (810) 
9.882616146708054

>  <path>  (810) 
/opt/xchem-fragalysis-2/maxwin/BulkDock/SCRATCH/511024/C36374-P123/C36374-P123.minimised.mol

>  <scratch_subdir>  (810) 
/opt/xchem-fragalysis-2/maxwin/BulkDock/SCRATCH/511024/C36374-P123

>  <fragmenstein_runtime>  (810) 
28.233293771743774

>  <fragmenstein_outcome>  (810) 
too moved

>  <fragmenstein_mode>  (810) 
expansion

>  <fragmenstein_error>  (810) 


$$$$
C36376-P53
     RDKit          3D

 44 45  0  0  0  0  0  0  0  0999 V2000
   -2.0591   -3.4907   22.1926 C   0  0  0  0  0  0  0  0  0  0  0  0
   -3.2351   -4.3153   22.7259 C   0  0  0  0  0  0  0  0  0  0  0  0
   -3.6310   -3.9943   24.1556 C   0  0  0  0  0  0  0  0  0  0  0  0
   -2.8898   -6.0983   22.5255 S   0  0  0  0  0  0  0  0  0  0  0  0
   -2.8397   -6.3559   21.0966 O   0  0  0  0  0  0  0  0  0  0  0  0
   -1.7481   -6.4453   23.3517 O   0  0  0  0  0  0  0  0  0  0  0  0
   -4.3191   -7.0018   23.1205 C   0  0  0  0  0  0  0  0  0  0  0  0
   -4.1718   -7.8282   24.2683 C   0  0  0  0  0  0  0  0  0  0  0  0
   -4.1225   -9.0219   23.0370 C   0  0  0  0  0  0  0  0  0  0  0  0
   -4.5961  -10.1597   23.5494 N   0  0  0  0  0  0  0  0  0  0  0  0
   -5.3776  -11.5221   22.9461 C   0  0  0  0  0  0  0  0  0  0  0  0
   -5.8059  -11.7760   21.9054 O   0  0  0  0  0  0  0  0  0  0  0  0
   -5.3695  -12.5465   24.1832 C   0  0  0  0  0  0  0  0  0  0  0  0
   -6.1525  -11.8651   25.3014 C   0  0  0  0  0  0  0  0  0  0  0  0
   -3.8836  -12.7761   24.5489 C   0  0  0  0  0  0  0  0  0  0  0  0
   -6.0813  -13.9482   24.0546 C   0  0  0  0  0  0  0  0  0  0  0  0
   -7.2153  -14.3411   23.2920 C   0  0  0  0  0  0  0  0  0  0  0  0
   -7.5665  -15.5967   23.7427 C   0  0  0  0  0  0  0  0  0  0  0  0
   -6.6745  -15.9033   24.7206 N   0  0  0  0  0  0  0  0  0  0  0  0
   -5.7666  -14.9383   24.9262 N   0  0  0  0  0  0  0  0  0  0  0  0
   -4.4312   -8.5210   22.5068 C   0  0  0  0  0  0  0  0  0  0  0  0
   -2.1962   -2.4260   22.3742 H   0  0  0  0  0  0  0  0  0  0  0  0
   -1.1059   -3.8210   22.6080 H   0  0  0  0  0  0  0  0  0  0  0  0
   -1.9778   -3.6242   21.1075 H   0  0  0  0  0  0  0  0  0  0  0  0
   -4.0973   -4.1188   22.0759 H   0  0  0  0  0  0  0  0  0  0  0  0
   -3.2100   -4.7149   24.8574 H   0  0  0  0  0  0  0  0  0  0  0  0
   -4.7185   -4.0862   24.2629 H   0  0  0  0  0  0  0  0  0  0  0  0
   -3.3647   -2.9797   24.4534 H   0  0  0  0  0  0  0  0  0  0  0  0
   -5.2453   -6.4361   23.0060 H   0  0  0  0  0  0  0  0  0  0  0  0
   -3.2612   -7.7293   24.8675 H   0  0  0  0  0  0  0  0  0  0  0  0
   -5.0692   -7.9463   24.8873 H   0  0  0  0  0  0  0  0  0  0  0  0
   -3.0027   -9.4246   22.3950 H   0  0  0  0  0  0  0  0  0  0  0  0
   -3.1968   -9.3039   23.7638 H   0  0  0  0  0  0  0  0  0  0  0  0
   -7.2288  -11.8810   25.0831 H   0  0  0  0  0  0  0  0  0  0  0  0
   -5.9983  -12.3977   26.2435 H   0  0  0  0  0  0  0  0  0  0  0  0
   -5.9034  -10.8156   25.4392 H   0  0  0  0  0  0  0  0  0  0  0  0
   -3.7611  -13.4378   25.4097 H   0  0  0  0  0  0  0  0  0  0  0  0
   -3.3555  -13.2401   23.7069 H   0  0  0  0  0  0  0  0  0  0  0  0
   -3.3505  -11.8540   24.7923 H   0  0  0  0  0  0  0  0  0  0  0  0
   -7.7286  -13.7556   22.5415 H   0  0  0  0  0  0  0  0  0  0  0  0
   -8.3639  -16.2698   23.4645 H   0  0  0  0  0  0  0  0  0  0  0  0
   -6.6212  -16.7421   25.2881 H   0  0  0  0  0  0  0  0  0  0  0  0
   -5.6188   -8.4542   22.1851 H   0  0  0  0  0  0  0  0  0  0  0  0
   -4.1790   -8.6136   21.2961 H   0  0  0  0  0  0  0  0  0  0  0  0
  1  2  1  0
  2  3  1  0
  2  4  1  0
  4  5  2  0
  4  6  2  0
  4  7  1  0
  7  8  1  0
  8  9  1  0
  9 10  1  0
 10 11  1  0
 11 12  2  0
 11 13  1  0
 13 14  1  0
 13 15  1  0
 13 16  1  0
 16 17  1  0
 17 18  2  0
 18 19  1  0
 19 20  1  0
 10 21  1  0
 21  7  1  0
 20 16  2  0
  1 22  1  0
  1 23  1  0
  1 24  1  0
  2 25  1  0
  3 26  1  0
  3 27  1  0
  3 28  1  0
  7 29  1  0
  8 30  1  0
  8 31  1  0
  9 32  1  0
  9 33  1  0
 14 34  1  0
 14 35  1  0
 14 36  1  0
 15 37  1  0
 15 38  1  0
 15 39  1  0
 17 40  1  0
 18 41  1  0
 19 42  1  0
 21 43  1  0
 21 44  1  0
M  END
>  <Energy>  (811) 
771.30121861832981

>  <compound_id>  (811) 
36376

>  <target_id>  (811) 
1

>  <reference_id>  (811) 
53

>  <inspiration_ids>  (811) 
[53, 123]

>  <energy_score>  (811) 
681.5287915366989

>  <distance_score>  (811) 
12.846827629242112

>  <path>  (811) 
/opt/xchem-fragalysis-2/maxwin/BulkDock/SCRATCH/511024/C36376-P53/C36376-P53.minimised.mol

>  <scratch_subdir>  (811) 
/opt/xchem-fragalysis-2/maxwin/BulkDock/SCRATCH/511024/C36376-P53

>  <fragmenstein_runtime>  (811) 
26.630546808242798

>  <fragmenstein_outcome>  (811) 
too moved

>  <fragmenstein_mode>  (811) 
expansion

>  <fragmenstein_error>  (811) 


$$$$
C36376-P123
     RDKit          3D

 44 45  0  0  0  0  0  0  0  0999 V2000
    1.0770    1.1181   27.3893 C   0  0  0  0  0  0  0  0  0  0  0  0
    0.9930    1.5162   28.8459 C   0  0  0  0  0  0  0  0  0  0  0  0
    1.9469    2.6774   29.1256 C   0  0  0  0  0  0  0  0  0  0  0  0
    1.3516    0.1314   29.9578 S   0  0  0  0  0  0  0  0  0  0  0  0
    2.7141   -0.3024   29.7295 O   0  0  0  0  0  0  0  0  0  0  0  0
    0.9412    0.5596   31.2859 O   0  0  0  0  0  0  0  0  0  0  0  0
    0.2725   -1.2496   29.5063 C   0  0  0  0  0  0  0  0  0  0  0  0
   -1.1075   -1.0560   29.8127 C   0  0  0  0  0  0  0  0  0  0  0  0
   -0.5439   -1.9190   31.0522 C   0  0  0  0  0  0  0  0  0  0  0  0
   -0.1048   -3.7054   30.6655 N   0  0  0  0  0  0  0  0  0  0  0  0
   -0.8734   -4.9611   31.4342 C   0  0  0  0  0  0  0  0  0  0  0  0
   -1.6188   -4.9980   32.3051 O   0  0  0  0  0  0  0  0  0  0  0  0
   -0.3542   -6.2886   30.7131 C   0  0  0  0  0  0  0  0  0  0  0  0
   -0.7553   -6.2195   29.2242 C   0  0  0  0  0  0  0  0  0  0  0  0
    1.1867   -6.3272   30.8280 C   0  0  0  0  0  0  0  0  0  0  0  0
   -0.9060   -7.6313   31.3441 C   0  0  0  0  0  0  0  0  0  0  0  0
   -1.4888   -7.9112   32.6119 C   0  0  0  0  0  0  0  0  0  0  0  0
   -1.5315   -9.2818   32.7214 C   0  0  0  0  0  0  0  0  0  0  0  0
   -1.0147   -9.7570   31.5612 N   0  0  0  0  0  0  0  0  0  0  0  0
   -0.7520   -8.7910   30.6685 N   0  0  0  0  0  0  0  0  0  0  0  0
    0.0182   -2.3188   30.8560 C   0  0  0  0  0  0  0  0  0  0  0  0
    2.0707    0.7331   27.1370 H   0  0  0  0  0  0  0  0  0  0  0  0
    0.3474    0.3335   27.1701 H   0  0  0  0  0  0  0  0  0  0  0  0
    0.8601    1.9682   26.7341 H   0  0  0  0  0  0  0  0  0  0  0  0
   -0.0305    1.8305   29.0802 H   0  0  0  0  0  0  0  0  0  0  0  0
    1.7015    3.5427   28.5012 H   0  0  0  0  0  0  0  0  0  0  0  0
    2.9871    2.3974   28.9273 H   0  0  0  0  0  0  0  0  0  0  0  0
    1.8829    2.9908   30.1729 H   0  0  0  0  0  0  0  0  0  0  0  0
    0.5326   -1.7503   28.5711 H   0  0  0  0  0  0  0  0  0  0  0  0
   -1.8205   -1.6153   29.2006 H   0  0  0  0  0  0  0  0  0  0  0  0
   -1.4448   -0.0595   30.1014 H   0  0  0  0  0  0  0  0  0  0  0  0
   -0.6098   -1.3844   32.2077 H   0  0  0  0  0  0  0  0  0  0  0  0
   -1.7112   -2.2345   31.3675 H   0  0  0  0  0  0  0  0  0  0  0  0
   -0.3671   -7.0749   28.6595 H   0  0  0  0  0  0  0  0  0  0  0  0
   -1.8444   -6.2193   29.1142 H   0  0  0  0  0  0  0  0  0  0  0  0
   -0.3778   -5.3182   28.7305 H   0  0  0  0  0  0  0  0  0  0  0  0
    1.6646   -5.4920   30.3056 H   0  0  0  0  0  0  0  0  0  0  0  0
    1.5993   -7.2489   30.4013 H   0  0  0  0  0  0  0  0  0  0  0  0
    1.4989   -6.2805   31.8780 H   0  0  0  0  0  0  0  0  0  0  0  0
   -1.7482   -7.2093   33.3927 H   0  0  0  0  0  0  0  0  0  0  0  0
   -1.8072   -9.9198   33.5470 H   0  0  0  0  0  0  0  0  0  0  0  0
   -0.8053  -10.7098   31.2848 H   0  0  0  0  0  0  0  0  0  0  0  0
    1.1301   -2.6041   30.4457 H   0  0  0  0  0  0  0  0  0  0  0  0
    0.9239   -2.2370   31.8560 H   0  0  0  0  0  0  0  0  0  0  0  0
  1  2  1  0
  2  3  1  0
  2  4  1  0
  4  5  2  0
  4  6  2  0
  4  7  1  0
  7  8  1  0
  8  9  1  0
  9 10  1  0
 10 11  1  0
 11 12  2  0
 11 13  1  0
 13 14  1  0
 13 15  1  0
 13 16  1  0
 16 17  1  0
 17 18  2  0
 18 19  1  0
 19 20  1  0
 10 21  1  0
 21  7  1  0
 20 16  2  0
  1 22  1  0
  1 23  1  0
  1 24  1  0
  2 25  1  0
  3 26  1  0
  3 27  1  0
  3 28  1  0
  7 29  1  0
  8 30  1  0
  8 31  1  0
  9 32  1  0
  9 33  1  0
 14 34  1  0
 14 35  1  0
 14 36  1  0
 15 37  1  0
 15 38  1  0
 15 39  1  0
 17 40  1  0
 18 41  1  0
 19 42  1  0
 21 43  1  0
 21 44  1  0
M  END
>  <Energy>  (812) 
739.70004175373811

>  <compound_id>  (812) 
36376

>  <target_id>  (812) 
1

>  <reference_id>  (812) 
123

>  <inspiration_ids>  (812) 
[53, 123]

>  <energy_score>  (812) 
649.9276146721135

>  <distance_score>  (812) 
11.84276735788959

>  <path>  (812) 
/opt/xchem-fragalysis-2/maxwin/BulkDock/SCRATCH/511024/C36376-P123/C36376-P123.minimised.mol

>  <scratch_subdir>  (812) 
/opt/xchem-fragalysis-2/maxwin/BulkDock/SCRATCH/511024/C36376-P123

>  <fragmenstein_runtime>  (812) 
19.297895193099976

>  <fragmenstein_outcome>  (812) 
too moved

>  <fragmenstein_mode>  (812) 
expansion

>  <fragmenstein_error>  (812) 


$$$$
C14120-P53
     RDKit          3D

 42 45  0  0  0  0  0  0  0  0999 V2000
   -1.0011   -4.3455   33.0640 C   0  0  0  0  0  0  0  0  0  0  0  0
   -0.3424   -5.3538   34.0113 C   0  0  0  0  0  0  0  0  0  0  0  0
    0.4867   -4.5756   34.9012 O   0  0  0  0  0  0  0  0  0  0  0  0
   -1.2822   -6.1960   34.9341 C   0  0  0  0  0  0  0  0  0  0  0  0
   -1.9525   -7.4198   34.5033 N   0  0  0  0  0  0  0  0  0  0  0  0
   -2.7984   -8.1936   35.2654 C   0  0  0  0  0  0  0  0  0  0  0  0
   -3.5483   -9.0186   34.5414 N   0  0  0  0  0  0  0  0  0  0  0  0
   -3.2670   -8.7036   33.1870 C   0  0  0  0  0  0  0  0  0  0  0  0
   -4.3682   -8.9965   31.7549 C   0  0  0  0  0  0  0  0  0  0  0  0
   -5.3097  -10.6746   31.3583 N   0  0  0  0  0  0  0  0  0  0  0  0
   -5.1609  -11.7411   29.6555 C   0  0  0  0  0  0  0  0  0  0  0  0
   -5.8942  -13.4950   30.2028 C   0  0  0  0  0  0  0  0  0  0  0  0
   -6.5699  -13.4126   31.6331 C   0  0  0  0  0  0  0  0  0  0  0  0
   -8.0691  -14.3056   32.3825 C   0  0  0  0  0  0  0  0  0  0  0  0
   -9.0103  -13.6083   33.1575 C   0  0  0  0  0  0  0  0  0  0  0  0
  -10.0548  -14.4962   33.8145 C   0  0  0  0  0  0  0  0  0  0  0  0
  -10.1114  -15.4473   32.9585 N   0  0  0  0  0  0  0  0  0  0  0  0
   -9.3067  -14.7347   32.0963 N   0  0  0  0  0  0  0  0  0  0  0  0
   -6.2167  -11.8317   32.3837 C   0  0  0  0  0  0  0  0  0  0  0  0
   -3.2083   -8.3927   30.9877 N   0  0  0  0  0  0  0  0  0  0  0  0
   -1.9426   -7.7135   31.1631 C   0  0  0  0  0  0  0  0  0  0  0  0
   -1.3341   -7.3820   32.2514 N   0  0  0  0  0  0  0  0  0  0  0  0
   -2.0786   -7.8777   33.2261 C   0  0  0  0  0  0  0  0  0  0  0  0
   -0.2900   -3.5654   32.7694 H   0  0  0  0  0  0  0  0  0  0  0  0
   -1.3414   -4.8267   32.1491 H   0  0  0  0  0  0  0  0  0  0  0  0
   -1.8391   -3.8396   33.5533 H   0  0  0  0  0  0  0  0  0  0  0  0
    0.3442   -6.0078   33.4647 H   0  0  0  0  0  0  0  0  0  0  0  0
    1.1992   -4.1814   34.3669 H   0  0  0  0  0  0  0  0  0  0  0  0
   -0.6903   -6.5137   35.8045 H   0  0  0  0  0  0  0  0  0  0  0  0
   -2.0648   -5.5414   35.3382 H   0  0  0  0  0  0  0  0  0  0  0  0
   -2.8467   -8.1026   36.3424 H   0  0  0  0  0  0  0  0  0  0  0  0
   -4.0808  -11.9191   29.4233 H   0  0  0  0  0  0  0  0  0  0  0  0
   -5.7697  -11.5490   28.8197 H   0  0  0  0  0  0  0  0  0  0  0  0
   -6.4907  -13.8894   29.3786 H   0  0  0  0  0  0  0  0  0  0  0  0
   -5.0978  -14.2142   30.3523 H   0  0  0  0  0  0  0  0  0  0  0  0
   -5.8342  -14.1569   31.9381 H   0  0  0  0  0  0  0  0  0  0  0  0
   -8.7587  -12.5681   33.2583 H   0  0  0  0  0  0  0  0  0  0  0  0
  -10.7180  -14.4260   34.6664 H   0  0  0  0  0  0  0  0  0  0  0  0
   -9.6745  -14.4734   31.2314 H   0  0  0  0  0  0  0  0  0  0  0  0
   -5.5610  -11.8497   33.2098 H   0  0  0  0  0  0  0  0  0  0  0  0
   -7.1954  -11.5342   32.6868 H   0  0  0  0  0  0  0  0  0  0  0  0
   -1.4457   -7.4238   30.2368 H   0  0  0  0  0  0  0  0  0  0  0  0
  1  2  1  0
  2  3  1  0
  2  4  1  0
  4  5  1  0
  5  6  1  0
  6  7  2  0
  7  8  1  0
  8  9  2  0
  9 10  1  0
 10 11  1  0
 11 12  1  0
 12 13  1  0
 13 14  1  0
 14 15  2  0
 15 16  1  0
 16 17  2  0
 17 18  1  0
 13 19  1  0
  9 20  1  0
 20 21  2  0
 21 22  1  0
 22 23  2  0
 23  5  1  0
 23  8  1  0
 19 10  1  0
 18 14  1  0
  1 24  1  0
  1 25  1  0
  1 26  1  0
  2 27  1  0
  3 28  1  0
  4 29  1  0
  4 30  1  0
  6 31  1  0
 11 32  1  0
 11 33  1  0
 12 34  1  0
 12 35  1  0
 13 36  1  0
 15 37  1  0
 16 38  1  0
 18 39  1  0
 19 40  1  0
 19 41  1  0
 21 42  1  0
M  END
>  <Energy>  (813) 
655.32816142436991

>  <compound_id>  (813) 
14120

>  <target_id>  (813) 
1

>  <reference_id>  (813) 
53

>  <inspiration_ids>  (813) 
[53, 123]

>  <energy_score>  (813) 
564.6222820678411

>  <distance_score>  (813) 
11.623439578716042

>  <path>  (813) 
/opt/xchem-fragalysis-2/maxwin/BulkDock/SCRATCH/511024/C14120-P53/C14120-P53.minimised.mol

>  <scratch_subdir>  (813) 
/opt/xchem-fragalysis-2/maxwin/BulkDock/SCRATCH/511024/C14120-P53

>  <fragmenstein_runtime>  (813) 
14.097800970077515

>  <fragmenstein_outcome>  (813) 
too moved

>  <fragmenstein_mode>  (813) 
expansion

>  <fragmenstein_error>  (813) 


$$$$
C14120-P123
     RDKit          3D

 42 45  0  0  0  0  0  0  0  0999 V2000
   -0.9898   -6.2310   32.6339 C   0  0  0  0  0  0  0  0  0  0  0  0
   -1.6970   -7.5069   33.1267 C   0  0  0  0  0  0  0  0  0  0  0  0
   -0.7635   -8.2378   33.9170 O   0  0  0  0  0  0  0  0  0  0  0  0
   -2.1769   -8.3476   31.9358 C   0  0  0  0  0  0  0  0  0  0  0  0
   -3.1692   -9.4234   32.1267 N   0  0  0  0  0  0  0  0  0  0  0  0
   -4.4653   -9.1924   32.4469 C   0  0  0  0  0  0  0  0  0  0  0  0
   -5.3309  -10.1975   32.4540 N   0  0  0  0  0  0  0  0  0  0  0  0
   -4.9514  -11.1826   31.5358 C   0  0  0  0  0  0  0  0  0  0  0  0
   -5.4471  -12.5857   30.8391 C   0  0  0  0  0  0  0  0  0  0  0  0
   -6.6935  -13.8981   30.9497 N   0  0  0  0  0  0  0  0  0  0  0  0
   -5.9744  -15.2535   30.7093 C   0  0  0  0  0  0  0  0  0  0  0  0
   -5.9440  -16.3295   32.3160 C   0  0  0  0  0  0  0  0  0  0  0  0
   -7.2856  -15.9661   33.1425 C   0  0  0  0  0  0  0  0  0  0  0  0
   -7.7354  -16.4267   34.5135 C   0  0  0  0  0  0  0  0  0  0  0  0
   -8.9802  -16.9473   34.8605 C   0  0  0  0  0  0  0  0  0  0  0  0
   -9.0087  -16.9667   36.2568 C   0  0  0  0  0  0  0  0  0  0  0  0
   -7.8369  -16.6217   36.7814 N   0  0  0  0  0  0  0  0  0  0  0  0
   -7.0968  -16.2979   35.7073 N   0  0  0  0  0  0  0  0  0  0  0  0
   -7.8346  -14.4884   32.2874 C   0  0  0  0  0  0  0  0  0  0  0  0
   -4.5757  -12.6922   29.8324 N   0  0  0  0  0  0  0  0  0  0  0  0
   -3.3443  -12.0459   29.7394 C   0  0  0  0  0  0  0  0  0  0  0  0
   -2.5258  -11.1286   30.4340 N   0  0  0  0  0  0  0  0  0  0  0  0
   -3.3484  -10.6010   31.3683 C   0  0  0  0  0  0  0  0  0  0  0  0
   -0.6494   -5.6381   33.4898 H   0  0  0  0  0  0  0  0  0  0  0  0
   -0.0942   -6.4892   32.0573 H   0  0  0  0  0  0  0  0  0  0  0  0
   -1.6326   -5.6073   32.0132 H   0  0  0  0  0  0  0  0  0  0  0  0
   -2.5128   -7.2326   33.7942 H   0  0  0  0  0  0  0  0  0  0  0  0
   -1.2211   -9.0039   34.3093 H   0  0  0  0  0  0  0  0  0  0  0  0
   -1.3229   -8.7929   31.4318 H   0  0  0  0  0  0  0  0  0  0  0  0
   -2.6454   -7.6418   31.2517 H   0  0  0  0  0  0  0  0  0  0  0  0
   -4.8247   -8.2331   32.2447 H   0  0  0  0  0  0  0  0  0  0  0  0
   -5.9350  -15.9397   29.8354 H   0  0  0  0  0  0  0  0  0  0  0  0
   -5.2013  -14.7732   30.2373 H   0  0  0  0  0  0  0  0  0  0  0  0
   -6.0748  -17.3773   32.0624 H   0  0  0  0  0  0  0  0  0  0  0  0
   -5.0194  -16.2837   32.8604 H   0  0  0  0  0  0  0  0  0  0  0  0
   -7.9943  -16.7327   32.7608 H   0  0  0  0  0  0  0  0  0  0  0  0
   -9.8024  -17.1406   34.1907 H   0  0  0  0  0  0  0  0  0  0  0  0
   -9.8364  -17.1935   36.9133 H   0  0  0  0  0  0  0  0  0  0  0  0
   -6.1808  -15.9167   35.8880 H   0  0  0  0  0  0  0  0  0  0  0  0
   -7.7472  -13.6505   32.9429 H   0  0  0  0  0  0  0  0  0  0  0  0
   -8.8425  -14.6596   31.9155 H   0  0  0  0  0  0  0  0  0  0  0  0
   -3.0567  -12.1389   28.7379 H   0  0  0  0  0  0  0  0  0  0  0  0
  1  2  1  0
  2  3  1  0
  2  4  1  0
  4  5  1  0
  5  6  1  0
  6  7  2  0
  7  8  1  0
  8  9  2  0
  9 10  1  0
 10 11  1  0
 11 12  1  0
 12 13  1  0
 13 14  1  0
 14 15  2  0
 15 16  1  0
 16 17  2  0
 17 18  1  0
 13 19  1  0
  9 20  1  0
 20 21  2  0
 21 22  1  0
 22 23  2  0
 23  5  1  0
 23  8  1  0
 19 10  1  0
 18 14  1  0
  1 24  1  0
  1 25  1  0
  1 26  1  0
  2 27  1  0
  3 28  1  0
  4 29  1  0
  4 30  1  0
  6 31  1  0
 11 32  1  0
 11 33  1  0
 12 34  1  0
 12 35  1  0
 13 36  1  0
 15 37  1  0
 16 38  1  0
 18 39  1  0
 19 40  1  0
 19 41  1  0
 21 42  1  0
M  END
>  <Energy>  (814) 
408.21932271111586

>  <compound_id>  (814) 
14120

>  <target_id>  (814) 
1

>  <reference_id>  (814) 
123

>  <inspiration_ids>  (814) 
[53, 123]

>  <energy_score>  (814) 
317.51344335459385

>  <distance_score>  (814) 
11.820661431571182

>  <path>  (814) 
/opt/xchem-fragalysis-2/maxwin/BulkDock/SCRATCH/511024/C14120-P123/C14120-P123.minimised.mol

>  <scratch_subdir>  (814) 
/opt/xchem-fragalysis-2/maxwin/BulkDock/SCRATCH/511024/C14120-P123

>  <fragmenstein_runtime>  (814) 
15.376314163208008

>  <fragmenstein_outcome>  (814) 
too moved

>  <fragmenstein_mode>  (814) 
expansion

>  <fragmenstein_error>  (814) 


$$$$
C14121-P53
     RDKit          3D

 40 41  0  0  0  0  0  0  0  0999 V2000
    0.5415   -9.7631   28.9068 C   0  0  0  0  0  0  0  0  0  0  0  0
    0.0085  -10.0893   30.3078 C   0  0  0  0  0  0  0  0  0  0  0  0
    0.1116  -11.5280   30.6866 N   0  0  0  0  0  0  0  0  0  0  0  0
   -0.5836  -12.7130   30.1621 C   0  0  0  0  0  0  0  0  0  0  0  0
   -1.3469  -12.8263   29.2457 O   0  0  0  0  0  0  0  0  0  0  0  0
   -0.3099  -13.9801   31.0624 C   0  0  0  0  0  0  0  0  0  0  0  0
   -1.4191  -15.0535   31.0851 C   0  0  0  0  0  0  0  0  0  0  0  0
   -1.9960  -15.8399   30.0986 C   0  0  0  0  0  0  0  0  0  0  0  0
   -2.9222  -16.6798   30.7554 C   0  0  0  0  0  0  0  0  0  0  0  0
   -2.9311  -16.4715   32.0721 N   0  0  0  0  0  0  0  0  0  0  0  0
   -2.0180  -15.4981   32.2465 N   0  0  0  0  0  0  0  0  0  0  0  0
    0.4787   -9.1071   31.4213 C   0  0  0  0  0  0  0  0  0  0  0  0
    1.8400   -8.4906   31.2868 C   0  0  0  0  0  0  0  0  0  0  0  0
    1.4737   -7.0210   31.3243 C   0  0  0  0  0  0  0  0  0  0  0  0
    0.2061   -6.7495   30.5584 N   0  0  0  0  0  0  0  0  0  0  0  0
   -0.0512   -5.3418   30.5060 C   0  0  0  0  0  0  0  0  0  0  0  0
   -0.6846   -4.6333   31.2480 O   0  0  0  0  0  0  0  0  0  0  0  0
    0.5656   -4.7510   29.2123 C   0  0  0  0  0  0  0  0  0  0  0  0
   -0.1245   -5.0819   28.0192 O   0  0  0  0  0  0  0  0  0  0  0  0
   -0.3153   -7.8037   31.4814 C   0  0  0  0  0  0  0  0  0  0  0  0
    1.6025  -10.0154   28.8154 H   0  0  0  0  0  0  0  0  0  0  0  0
    0.3956   -8.7124   28.6434 H   0  0  0  0  0  0  0  0  0  0  0  0
    0.0223  -10.3709   28.1576 H   0  0  0  0  0  0  0  0  0  0  0  0
   -1.0708   -9.9650   30.2311 H   0  0  0  0  0  0  0  0  0  0  0  0
    0.6178  -11.7846   31.5253 H   0  0  0  0  0  0  0  0  0  0  0  0
    0.6114  -14.4442   30.6916 H   0  0  0  0  0  0  0  0  0  0  0  0
   -0.1339  -13.6511   32.0933 H   0  0  0  0  0  0  0  0  0  0  0  0
   -1.7818  -15.7996   29.0390 H   0  0  0  0  0  0  0  0  0  0  0  0
   -3.5808  -17.4263   30.3293 H   0  0  0  0  0  0  0  0  0  0  0  0
   -1.8434  -15.1872   33.1953 H   0  0  0  0  0  0  0  0  0  0  0  0
    0.3719   -9.6118   32.3900 H   0  0  0  0  0  0  0  0  0  0  0  0
    2.3627   -8.7408   30.3622 H   0  0  0  0  0  0  0  0  0  0  0  0
    2.5030   -8.7527   32.1177 H   0  0  0  0  0  0  0  0  0  0  0  0
    2.2759   -6.4551   30.8312 H   0  0  0  0  0  0  0  0  0  0  0  0
    1.4433   -6.5922   32.3419 H   0  0  0  0  0  0  0  0  0  0  0  0
    0.6044   -3.6604   29.3078 H   0  0  0  0  0  0  0  0  0  0  0  0
    1.5983   -5.0980   29.1116 H   0  0  0  0  0  0  0  0  0  0  0  0
   -0.9576   -4.5653   28.0099 H   0  0  0  0  0  0  0  0  0  0  0  0
   -0.4385   -7.4119   32.5073 H   0  0  0  0  0  0  0  0  0  0  0  0
   -1.3521   -7.9683   31.1689 H   0  0  0  0  0  0  0  0  0  0  0  0
  1  2  1  0
  2  3  1  0
  3  4  1  0
  4  5  2  0
  4  6  1  0
  6  7  1  0
  7  8  2  0
  8  9  1  0
  9 10  2  0
 10 11  1  0
  2 12  1  0
 12 13  1  0
 13 14  1  0
 14 15  1  0
 15 16  1  0
 16 17  2  0
 16 18  1  0
 18 19  1  0
 15 20  1  0
 11  7  1  0
 20 12  1  0
  1 21  1  0
  1 22  1  0
  1 23  1  0
  2 24  1  0
  3 25  1  0
  6 26  1  0
  6 27  1  0
  8 28  1  0
  9 29  1  0
 11 30  1  0
 12 31  1  0
 13 32  1  0
 13 33  1  0
 14 34  1  0
 14 35  1  0
 18 36  1  0
 18 37  1  0
 19 38  1  0
 20 39  1  0
 20 40  1  0
M  END
>  <Energy>  (815) 
120.6079515366701

>  <compound_id>  (815) 
14121

>  <target_id>  (815) 
1

>  <reference_id>  (815) 
53

>  <inspiration_ids>  (815) 
[53, 123]

>  <energy_score>  (815) 
44.17644330057499

>  <distance_score>  (815) 
13.624189466449737

>  <path>  (815) 
/opt/xchem-fragalysis-2/maxwin/BulkDock/SCRATCH/511024/C14121-P53/C14121-P53.minimised.mol

>  <scratch_subdir>  (815) 
/opt/xchem-fragalysis-2/maxwin/BulkDock/SCRATCH/511024/C14121-P53

>  <fragmenstein_runtime>  (815) 
28.563726902008057

>  <fragmenstein_outcome>  (815) 
too moved

>  <fragmenstein_mode>  (815) 
expansion

>  <fragmenstein_error>  (815) 


$$$$
C14121-P123
     RDKit          3D

 40 41  0  0  0  0  0  0  0  0999 V2000
   -7.9040   -4.6440   27.5328 C   0  0  0  0  0  0  0  0  0  0  0  0
   -6.2203   -5.5254   27.5134 C   0  0  0  0  0  0  0  0  0  0  0  0
   -6.7281   -7.0916   26.2429 N   0  0  0  0  0  0  0  0  0  0  0  0
   -7.3108   -8.9553   26.6801 C   0  0  0  0  0  0  0  0  0  0  0  0
   -7.4415   -9.1918   27.8340 O   0  0  0  0  0  0  0  0  0  0  0  0
   -7.7026  -10.6293   25.6297 C   0  0  0  0  0  0  0  0  0  0  0  0
   -9.5730  -11.3938   25.4703 C   0  0  0  0  0  0  0  0  0  0  0  0
  -10.5540  -11.2957   24.4030 C   0  0  0  0  0  0  0  0  0  0  0  0
  -11.6709  -12.1196   24.6728 C   0  0  0  0  0  0  0  0  0  0  0  0
  -11.4915  -12.8852   25.7322 N   0  0  0  0  0  0  0  0  0  0  0  0
  -10.2341  -12.6123   26.0988 N   0  0  0  0  0  0  0  0  0  0  0  0
   -5.1000   -3.7320   28.1117 C   0  0  0  0  0  0  0  0  0  0  0  0
   -3.3470   -2.9953   28.9335 C   0  0  0  0  0  0  0  0  0  0  0  0
   -2.4050   -2.0735   28.2051 C   0  0  0  0  0  0  0  0  0  0  0  0
   -3.2382   -1.0469   27.8397 N   0  0  0  0  0  0  0  0  0  0  0  0
   -2.4946   -0.0017   27.1922 C   0  0  0  0  0  0  0  0  0  0  0  0
   -2.2408    0.1720   26.0325 O   0  0  0  0  0  0  0  0  0  0  0  0
   -1.8835    0.9475   28.2456 C   0  0  0  0  0  0  0  0  0  0  0  0
   -0.4799    0.7707   28.3617 O   0  0  0  0  0  0  0  0  0  0  0  0
   -4.1675   -2.3972   27.1702 C   0  0  0  0  0  0  0  0  0  0  0  0
   -8.7417   -5.3057   27.3818 H   0  0  0  0  0  0  0  0  0  0  0  0
   -7.8688   -3.8445   28.2876 H   0  0  0  0  0  0  0  0  0  0  0  0
   -8.1863   -4.0523   26.6762 H   0  0  0  0  0  0  0  0  0  0  0  0
   -6.2641   -5.8869   28.5511 H   0  0  0  0  0  0  0  0  0  0  0  0
   -6.5585   -7.0236   25.1916 H   0  0  0  0  0  0  0  0  0  0  0  0
   -7.1022  -11.4768   25.9807 H   0  0  0  0  0  0  0  0  0  0  0  0
   -7.2450  -10.6246   24.6312 H   0  0  0  0  0  0  0  0  0  0  0  0
  -10.4469  -10.7037   23.5023 H   0  0  0  0  0  0  0  0  0  0  0  0
  -12.5848  -12.2120   24.1005 H   0  0  0  0  0  0  0  0  0  0  0  0
   -9.8126  -13.2227   26.7945 H   0  0  0  0  0  0  0  0  0  0  0  0
   -5.8302   -3.3371   28.8230 H   0  0  0  0  0  0  0  0  0  0  0  0
   -3.4224   -2.6707   30.0103 H   0  0  0  0  0  0  0  0  0  0  0  0
   -2.5066   -3.7082   29.1082 H   0  0  0  0  0  0  0  0  0  0  0  0
   -1.6915   -1.6818   28.9470 H   0  0  0  0  0  0  0  0  0  0  0  0
   -1.7392   -2.4319   27.4222 H   0  0  0  0  0  0  0  0  0  0  0  0
   -2.3244    0.7809   29.2325 H   0  0  0  0  0  0  0  0  0  0  0  0
   -2.0960    1.9803   27.9514 H   0  0  0  0  0  0  0  0  0  0  0  0
   -0.1244    0.8359   27.4552 H   0  0  0  0  0  0  0  0  0  0  0  0
   -4.8686   -2.0217   27.8163 H   0  0  0  0  0  0  0  0  0  0  0  0
   -4.4092   -2.1857   26.1498 H   0  0  0  0  0  0  0  0  0  0  0  0
  1  2  1  0
  2  3  1  0
  3  4  1  0
  4  5  2  0
  4  6  1  0
  6  7  1  0
  7  8  2  0
  8  9  1  0
  9 10  2  0
 10 11  1  0
  2 12  1  0
 12 13  1  0
 13 14  1  0
 14 15  1  0
 15 16  1  0
 16 17  2  0
 16 18  1  0
 18 19  1  0
 15 20  1  0
 11  7  1  0
 20 12  1  0
  1 21  1  0
  1 22  1  0
  1 23  1  0
  2 24  1  0
  3 25  1  0
  6 26  1  0
  6 27  1  0
  8 28  1  0
  9 29  1  0
 11 30  1  0
 12 31  1  0
 13 32  1  0
 13 33  1  0
 14 34  1  0
 14 35  1  0
 18 36  1  0
 18 37  1  0
 19 38  1  0
 20 39  1  0
 20 40  1  0
M  END
>  <Energy>  (816) 
977.86636297096982

>  <compound_id>  (816) 
14121

>  <target_id>  (816) 
1

>  <reference_id>  (816) 
123

>  <inspiration_ids>  (816) 
[53, 123]

>  <energy_score>  (816) 
901.4348547348843

>  <distance_score>  (816) 
12.389314773630687

>  <path>  (816) 
/opt/xchem-fragalysis-2/maxwin/BulkDock/SCRATCH/511024/C14121-P123/C14121-P123.minimised.mol

>  <scratch_subdir>  (816) 
/opt/xchem-fragalysis-2/maxwin/BulkDock/SCRATCH/511024/C14121-P123

>  <fragmenstein_runtime>  (816) 
29.6964054107666

>  <fragmenstein_outcome>  (816) 
too moved

>  <fragmenstein_mode>  (816) 
expansion

>  <fragmenstein_error>  (816) 


$$$$
C47060-P53
     RDKit          3D

 47 49  0  0  0  0  0  0  0  0999 V2000
   -8.6523  -13.4753   35.7799 O   0  0  0  0  0  0  0  0  0  0  0  0
   -8.6838  -13.7193   34.5799 C   0  0  0  0  0  0  0  0  0  0  0  0
   -7.8689  -12.3342   33.4895 C   0  0  0  0  0  0  0  0  0  0  0  0
   -6.0725  -11.3872   33.3324 C   0  0  0  0  0  0  0  0  0  0  0  0
   -5.0468  -10.3744   34.6262 C   0  0  0  0  0  0  0  0  0  0  0  0
   -4.9948  -10.5725   36.0042 N   0  0  0  0  0  0  0  0  0  0  0  0
   -4.2236   -9.7461   36.7473 N   0  0  0  0  0  0  0  0  0  0  0  0
   -3.7429   -8.8392   35.9006 C   0  0  0  0  0  0  0  0  0  0  0  0
   -4.2473   -9.0419   34.6036 C   0  0  0  0  0  0  0  0  0  0  0  0
   -4.0333   -7.9383   33.5752 C   0  0  0  0  0  0  0  0  0  0  0  0
   -2.8178   -7.0373   33.8585 C   0  0  0  0  0  0  0  0  0  0  0  0
   -2.8388   -6.5396   35.3019 C   0  0  0  0  0  0  0  0  0  0  0  0
   -2.8246   -7.7151   36.2981 C   0  0  0  0  0  0  0  0  0  0  0  0
   -9.1629  -15.0776   33.7910 N   0  0  0  0  0  0  0  0  0  0  0  0
   -9.6393  -16.6895   34.4185 C   0  0  0  0  0  0  0  0  0  0  0  0
  -10.8473  -17.2845   35.0176 C   0  0  0  0  0  0  0  0  0  0  0  0
  -10.7331  -18.8817   34.5010 C   0  0  0  0  0  0  0  0  0  0  0  0
  -10.5024  -19.1126   32.7891 N   0  0  0  0  0  0  0  0  0  0  0  0
  -10.6880  -20.7028   31.6080 C   0  0  0  0  0  0  0  0  0  0  0  0
  -10.9265  -21.8665   32.0241 O   0  0  0  0  0  0  0  0  0  0  0  0
  -10.7444  -20.7058   30.0624 C   0  0  0  0  0  0  0  0  0  0  0  0
  -10.8735  -21.9528   29.3501 O   0  0  0  0  0  0  0  0  0  0  0  0
   -9.0224  -18.3923   33.6173 C   0  0  0  0  0  0  0  0  0  0  0  0
   -7.4695  -13.0665   32.8017 H   0  0  0  0  0  0  0  0  0  0  0  0
   -8.5307  -11.8646   32.7810 H   0  0  0  0  0  0  0  0  0  0  0  0
   -5.5315  -12.2781   33.2352 H   0  0  0  0  0  0  0  0  0  0  0  0
   -5.8006  -11.0780   32.3530 H   0  0  0  0  0  0  0  0  0  0  0  0
   -5.5110  -11.2828   36.4965 H   0  0  0  0  0  0  0  0  0  0  0  0
   -3.9230   -8.3143   32.5645 H   0  0  0  0  0  0  0  0  0  0  0  0
   -4.9304   -7.3071   33.6015 H   0  0  0  0  0  0  0  0  0  0  0  0
   -2.8241   -6.1857   33.1691 H   0  0  0  0  0  0  0  0  0  0  0  0
   -1.8923   -7.5969   33.6765 H   0  0  0  0  0  0  0  0  0  0  0  0
   -1.9815   -5.8846   35.4926 H   0  0  0  0  0  0  0  0  0  0  0  0
   -3.7441   -5.9404   35.4626 H   0  0  0  0  0  0  0  0  0  0  0  0
   -1.8059   -8.1177   36.3610 H   0  0  0  0  0  0  0  0  0  0  0  0
   -3.0892   -7.3476   37.2963 H   0  0  0  0  0  0  0  0  0  0  0  0
   -9.1417  -14.9156   32.7996 H   0  0  0  0  0  0  0  0  0  0  0  0
   -8.9315  -16.6529   35.2605 H   0  0  0  0  0  0  0  0  0  0  0  0
  -10.8189  -17.2884   36.1141 H   0  0  0  0  0  0  0  0  0  0  0  0
  -11.7940  -16.8072   34.7443 H   0  0  0  0  0  0  0  0  0  0  0  0
  -11.8602  -18.8537   34.5624 H   0  0  0  0  0  0  0  0  0  0  0  0
  -10.1470  -19.4287   35.2818 H   0  0  0  0  0  0  0  0  0  0  0  0
  -11.8113  -20.4740   29.9175 H   0  0  0  0  0  0  0  0  0  0  0  0
  -10.2716  -20.1106   29.4049 H   0  0  0  0  0  0  0  0  0  0  0  0
  -11.7410  -22.3134   29.6356 H   0  0  0  0  0  0  0  0  0  0  0  0
   -8.0158  -18.4090   33.1437 H   0  0  0  0  0  0  0  0  0  0  0  0
   -8.7044  -19.0764   34.4295 H   0  0  0  0  0  0  0  0  0  0  0  0
  1  2  2  0
  2  3  1  0
  3  4  1  0
  4  5  1  0
  5  6  1  0
  6  7  1  0
  7  8  2  0
  8  9  1  0
  9 10  1  0
 10 11  1  0
 11 12  1  0
 12 13  1  0
  2 14  1  0
 14 15  1  0
 15 16  1  0
 16 17  1  0
 17 18  1  0
 18 19  1  0
 19 20  2  0
 19 21  1  0
 21 22  1  0
 18 23  1  0
  9  5  2  0
 23 15  1  0
 13  8  1  0
  3 24  1  0
  3 25  1  0
  4 26  1  0
  4 27  1  0
  6 28  1  0
 10 29  1  0
 10 30  1  0
 11 31  1  0
 11 32  1  0
 12 33  1  0
 12 34  1  0
 13 35  1  0
 13 36  1  0
 14 37  1  0
 15 38  1  0
 16 39  1  0
 16 40  1  0
 17 41  1  0
 17 42  1  0
 21 43  1  0
 21 44  1  0
 22 45  1  0
 23 46  1  0
 23 47  1  0
M  END
>  <Energy>  (817) 
700.54046260283121

>  <compound_id>  (817) 
47060

>  <target_id>  (817) 
1

>  <reference_id>  (817) 
53

>  <inspiration_ids>  (817) 
[53, 123]

>  <energy_score>  (817) 
631.6782039496003

>  <distance_score>  (817) 
13.817157971763834

>  <path>  (817) 
/opt/xchem-fragalysis-2/maxwin/BulkDock/SCRATCH/511024/C47060-P53/C47060-P53.minimised.mol

>  <scratch_subdir>  (817) 
/opt/xchem-fragalysis-2/maxwin/BulkDock/SCRATCH/511024/C47060-P53

>  <fragmenstein_runtime>  (817) 
34.05062794685364

>  <fragmenstein_outcome>  (817) 
too moved

>  <fragmenstein_mode>  (817) 
expansion

>  <fragmenstein_error>  (817) 


$$$$
C47060-P123
     RDKit          3D

 47 49  0  0  0  0  0  0  0  0999 V2000
  -10.9448  -14.7268   27.1985 O   0  0  0  0  0  0  0  0  0  0  0  0
  -12.0885  -14.5504   26.8656 C   0  0  0  0  0  0  0  0  0  0  0  0
  -12.4240  -13.0269   26.0729 C   0  0  0  0  0  0  0  0  0  0  0  0
  -11.2126  -12.0140   25.4577 C   0  0  0  0  0  0  0  0  0  0  0  0
  -11.1702  -10.3871   25.5217 C   0  0  0  0  0  0  0  0  0  0  0  0
  -12.1577   -9.6545   26.1389 N   0  0  0  0  0  0  0  0  0  0  0  0
  -12.0503   -8.3151   26.0304 N   0  0  0  0  0  0  0  0  0  0  0  0
  -10.8983   -8.1253   25.3883 C   0  0  0  0  0  0  0  0  0  0  0  0
  -10.2538   -9.3682   25.1149 C   0  0  0  0  0  0  0  0  0  0  0  0
   -8.9010   -9.3614   24.4649 C   0  0  0  0  0  0  0  0  0  0  0  0
   -8.2442   -7.9557   24.3569 C   0  0  0  0  0  0  0  0  0  0  0  0
   -9.2207   -6.8255   24.0295 C   0  0  0  0  0  0  0  0  0  0  0  0
  -10.3903   -6.7565   25.0195 C   0  0  0  0  0  0  0  0  0  0  0  0
  -13.3250  -15.3944   27.1114 N   0  0  0  0  0  0  0  0  0  0  0  0
  -13.5300  -16.7218   27.9777 C   0  0  0  0  0  0  0  0  0  0  0  0
  -15.0598  -17.6876   28.0512 C   0  0  0  0  0  0  0  0  0  0  0  0
  -14.5075  -19.1919   29.3704 C   0  0  0  0  0  0  0  0  0  0  0  0
  -13.0454  -19.9990   28.9338 N   0  0  0  0  0  0  0  0  0  0  0  0
  -12.1121  -20.9214   29.7727 C   0  0  0  0  0  0  0  0  0  0  0  0
  -12.1358  -21.2071   30.9588 O   0  0  0  0  0  0  0  0  0  0  0  0
  -11.1037  -21.6443   28.9213 C   0  0  0  0  0  0  0  0  0  0  0  0
  -11.5179  -22.0723   27.6341 O   0  0  0  0  0  0  0  0  0  0  0  0
  -12.4315  -18.0871   28.8315 C   0  0  0  0  0  0  0  0  0  0  0  0
  -13.1034  -13.2624   25.2456 H   0  0  0  0  0  0  0  0  0  0  0  0
  -12.9792  -12.4485   26.8200 H   0  0  0  0  0  0  0  0  0  0  0  0
  -11.1919  -12.2331   24.3818 H   0  0  0  0  0  0  0  0  0  0  0  0
  -10.2995  -12.4020   25.8797 H   0  0  0  0  0  0  0  0  0  0  0  0
  -12.9706  -10.0143   26.6241 H   0  0  0  0  0  0  0  0  0  0  0  0
   -9.0024   -9.7794   23.4565 H   0  0  0  0  0  0  0  0  0  0  0  0
   -8.2283  -10.0048   25.0389 H   0  0  0  0  0  0  0  0  0  0  0  0
   -7.4603   -7.9897   23.5913 H   0  0  0  0  0  0  0  0  0  0  0  0
   -7.7415   -7.7202   25.2953 H   0  0  0  0  0  0  0  0  0  0  0  0
   -8.6975   -5.8632   24.0036 H   0  0  0  0  0  0  0  0  0  0  0  0
   -9.6194   -6.9961   23.0210 H   0  0  0  0  0  0  0  0  0  0  0  0
  -11.2036   -6.1754   24.5678 H   0  0  0  0  0  0  0  0  0  0  0  0
  -10.0909   -6.2151   25.9219 H   0  0  0  0  0  0  0  0  0  0  0  0
  -14.1392  -14.9041   26.7602 H   0  0  0  0  0  0  0  0  0  0  0  0
  -13.5755  -16.0087   28.8341 H   0  0  0  0  0  0  0  0  0  0  0  0
  -15.2882  -17.9346   26.9982 H   0  0  0  0  0  0  0  0  0  0  0  0
  -15.8784  -17.0964   28.4979 H   0  0  0  0  0  0  0  0  0  0  0  0
  -15.3247  -19.1239   30.1944 H   0  0  0  0  0  0  0  0  0  0  0  0
  -14.7324  -20.1989   29.7607 H   0  0  0  0  0  0  0  0  0  0  0  0
  -10.1851  -21.1490   28.8785 H   0  0  0  0  0  0  0  0  0  0  0  0
  -10.9754  -22.5975   29.4370 H   0  0  0  0  0  0  0  0  0  0  0  0
  -12.3951  -22.4752   27.7262 H   0  0  0  0  0  0  0  0  0  0  0  0
  -11.4447  -17.9077   28.4214 H   0  0  0  0  0  0  0  0  0  0  0  0
  -12.2102  -17.4293   29.6782 H   0  0  0  0  0  0  0  0  0  0  0  0
  1  2  2  0
  2  3  1  0
  3  4  1  0
  4  5  1  0
  5  6  1  0
  6  7  1  0
  7  8  2  0
  8  9  1  0
  9 10  1  0
 10 11  1  0
 11 12  1  0
 12 13  1  0
  2 14  1  0
 14 15  1  0
 15 16  1  0
 16 17  1  0
 17 18  1  0
 18 19  1  0
 19 20  2  0
 19 21  1  0
 21 22  1  0
 18 23  1  0
  9  5  2  0
 23 15  1  0
 13  8  1  0
  3 24  1  0
  3 25  1  0
  4 26  1  0
  4 27  1  0
  6 28  1  0
 10 29  1  0
 10 30  1  0
 11 31  1  0
 11 32  1  0
 12 33  1  0
 12 34  1  0
 13 35  1  0
 13 36  1  0
 14 37  1  0
 15 38  1  0
 16 39  1  0
 16 40  1  0
 17 41  1  0
 17 42  1  0
 21 43  1  0
 21 44  1  0
 22 45  1  0
 23 46  1  0
 23 47  1  0
M  END
>  <Energy>  (818) 
485.56926475199975

>  <compound_id>  (818) 
47060

>  <target_id>  (818) 
1

>  <reference_id>  (818) 
123

>  <inspiration_ids>  (818) 
[53, 123]

>  <energy_score>  (818) 
416.7070060987787

>  <distance_score>  (818) 
14.905127413093787

>  <path>  (818) 
/opt/xchem-fragalysis-2/maxwin/BulkDock/SCRATCH/511024/C47060-P123/C47060-P123.minimised.mol

>  <scratch_subdir>  (818) 
/opt/xchem-fragalysis-2/maxwin/BulkDock/SCRATCH/511024/C47060-P123

>  <fragmenstein_runtime>  (818) 
16.635595083236694

>  <fragmenstein_outcome>  (818) 
too moved

>  <fragmenstein_mode>  (818) 
expansion

>  <fragmenstein_error>  (818) 


$$$$
C47061-P53
     RDKit          3D

 42 44  0  0  0  0  0  0  0  0999 V2000
   -3.5957   -0.5465   27.0520 O   0  0  0  0  0  0  0  0  0  0  0  0
   -2.5728   -1.0465   27.4200 C   0  0  0  0  0  0  0  0  0  0  0  0
   -2.2803   -2.3907   27.8242 N   0  0  0  0  0  0  0  0  0  0  0  0
   -3.1049   -3.5896   27.8247 C   0  0  0  0  0  0  0  0  0  0  0  0
   -4.5038   -3.5570   27.1399 C   0  0  0  0  0  0  0  0  0  0  0  0
   -5.2118   -4.8915   27.4283 C   0  0  0  0  0  0  0  0  0  0  0  0
   -6.2403   -4.8636   26.3509 C   0  0  0  0  0  0  0  0  0  0  0  0
   -5.8706   -3.5433   25.7039 C   0  0  0  0  0  0  0  0  0  0  0  0
   -4.3780   -3.3279   25.6382 N   0  0  0  0  0  0  0  0  0  0  0  0
   -3.8052   -4.1450   24.6122 C   0  0  0  0  0  0  0  0  0  0  0  0
   -3.3557   -5.2624   24.6605 O   0  0  0  0  0  0  0  0  0  0  0  0
   -3.7931   -3.3511   23.2797 C   0  0  0  0  0  0  0  0  0  0  0  0
   -4.4112   -2.0742   23.3066 O   0  0  0  0  0  0  0  0  0  0  0  0
   -1.3468   -0.1925   27.6180 C   0  0  0  0  0  0  0  0  0  0  0  0
   -0.2656   -0.6680   28.2885 N   0  0  0  0  0  0  0  0  0  0  0  0
    0.6121    0.3497   28.2795 N   0  0  0  0  0  0  0  0  0  0  0  0
    0.1431    1.4729   27.6767 C   0  0  0  0  0  0  0  0  0  0  0  0
   -1.1203    1.1625   27.2096 C   0  0  0  0  0  0  0  0  0  0  0  0
   -2.0221    2.0818   26.4570 C   0  0  0  0  0  0  0  0  0  0  0  0
   -1.0722    3.4663   25.6954 S   0  0  0  0  0  0  0  0  0  0  0  0
   -0.0274    3.9020   27.1339 C   0  0  0  0  0  0  0  0  0  0  0  0
    0.9004    2.7465   27.5291 C   0  0  0  0  0  0  0  0  0  0  0  0
   -1.3167   -2.4351   28.1542 H   0  0  0  0  0  0  0  0  0  0  0  0
   -3.2358   -3.8443   28.8835 H   0  0  0  0  0  0  0  0  0  0  0  0
   -2.4892   -4.3836   27.3885 H   0  0  0  0  0  0  0  0  0  0  0  0
   -5.0274   -2.7072   27.6117 H   0  0  0  0  0  0  0  0  0  0  0  0
   -5.6438   -4.9030   28.4326 H   0  0  0  0  0  0  0  0  0  0  0  0
   -4.5449   -5.7534   27.3166 H   0  0  0  0  0  0  0  0  0  0  0  0
   -6.1223   -5.7014   25.6561 H   0  0  0  0  0  0  0  0  0  0  0  0
   -7.2700   -4.8353   26.7148 H   0  0  0  0  0  0  0  0  0  0  0  0
   -6.2461   -3.5657   24.6711 H   0  0  0  0  0  0  0  0  0  0  0  0
   -6.3803   -2.6713   26.1470 H   0  0  0  0  0  0  0  0  0  0  0  0
   -4.3148   -3.9548   22.5307 H   0  0  0  0  0  0  0  0  0  0  0  0
   -2.7543   -3.2230   22.9632 H   0  0  0  0  0  0  0  0  0  0  0  0
   -4.0342   -1.6337   24.0956 H   0  0  0  0  0  0  0  0  0  0  0  0
    1.5174    0.2059   28.7138 H   0  0  0  0  0  0  0  0  0  0  0  0
   -2.7784    2.5045   27.1260 H   0  0  0  0  0  0  0  0  0  0  0  0
   -2.5335    1.5499   25.6492 H   0  0  0  0  0  0  0  0  0  0  0  0
   -0.6854    4.1781   27.9656 H   0  0  0  0  0  0  0  0  0  0  0  0
    0.5674    4.7846   26.8784 H   0  0  0  0  0  0  0  0  0  0  0  0
    1.6780    2.6155   26.7662 H   0  0  0  0  0  0  0  0  0  0  0  0
    1.4073    2.9960   28.4684 H   0  0  0  0  0  0  0  0  0  0  0  0
  1  2  2  0
  2  3  1  0
  3  4  1  0
  4  5  1  0
  5  6  1  0
  6  7  1  0
  7  8  1  0
  8  9  1  0
  9 10  1  0
 10 11  2  0
 10 12  1  0
 12 13  1  0
  2 14  1  0
 14 15  2  0
 15 16  1  0
 16 17  1  0
 17 18  2  0
 18 19  1  0
 19 20  1  0
 20 21  1  0
 21 22  1  0
  9  5  1  0
 18 14  1  0
 22 17  1  0
  3 23  1  0
  4 24  1  0
  4 25  1  0
  5 26  1  0
  6 27  1  0
  6 28  1  0
  7 29  1  0
  7 30  1  0
  8 31  1  0
  8 32  1  0
 12 33  1  0
 12 34  1  0
 13 35  1  0
 16 36  1  0
 19 37  1  0
 19 38  1  0
 21 39  1  0
 21 40  1  0
 22 41  1  0
 22 42  1  0
M  END
>  <Energy>  (819) 
136.14945965580131

>  <compound_id>  (819) 
47061

>  <target_id>  (819) 
1

>  <reference_id>  (819) 
53

>  <inspiration_ids>  (819) 
[53, 123]

>  <energy_score>  (819) 
3.793150636458222

>  <distance_score>  (819) 
14.17508977218887

>  <path>  (819) 
/opt/xchem-fragalysis-2/maxwin/BulkDock/SCRATCH/511024/C47061-P53/C47061-P53.minimised.mol

>  <scratch_subdir>  (819) 
/opt/xchem-fragalysis-2/maxwin/BulkDock/SCRATCH/511024/C47061-P53

>  <fragmenstein_runtime>  (819) 
27.312273740768433

>  <fragmenstein_outcome>  (819) 
too moved

>  <fragmenstein_mode>  (819) 
expansion

>  <fragmenstein_error>  (819) 


$$$$
C47061-P123
     RDKit          3D

 42 44  0  0  0  0  0  0  0  0999 V2000
   -6.3393  -10.4432   29.2663 O   0  0  0  0  0  0  0  0  0  0  0  0
   -7.0812   -9.6801   29.4294 C   0  0  0  0  0  0  0  0  0  0  0  0
   -8.8463  -10.6258   29.6677 N   0  0  0  0  0  0  0  0  0  0  0  0
   -9.2737  -12.9664   29.3055 C   0  0  0  0  0  0  0  0  0  0  0  0
  -10.4595  -14.9460   30.0620 C   0  0  0  0  0  0  0  0  0  0  0  0
  -12.1330  -14.6191   29.2142 C   0  0  0  0  0  0  0  0  0  0  0  0
  -13.0647  -15.2687   30.0891 C   0  0  0  0  0  0  0  0  0  0  0  0
  -12.2779  -16.5267   30.4510 C   0  0  0  0  0  0  0  0  0  0  0  0
  -10.9620  -17.3319   30.0894 N   0  0  0  0  0  0  0  0  0  0  0  0
  -10.4076  -19.2217   31.2981 C   0  0  0  0  0  0  0  0  0  0  0  0
   -9.6854  -19.3645   32.3881 O   0  0  0  0  0  0  0  0  0  0  0  0
  -11.0658  -20.8538   30.6710 C   0  0  0  0  0  0  0  0  0  0  0  0
  -11.1475  -21.8715   31.6363 O   0  0  0  0  0  0  0  0  0  0  0  0
   -6.1217   -7.9344   29.0940 C   0  0  0  0  0  0  0  0  0  0  0  0
   -4.9990   -7.8631   28.2791 N   0  0  0  0  0  0  0  0  0  0  0  0
   -4.6103   -6.7053   27.7440 N   0  0  0  0  0  0  0  0  0  0  0  0
   -5.2154   -5.5701   28.1174 C   0  0  0  0  0  0  0  0  0  0  0  0
   -6.2195   -5.9973   29.0043 C   0  0  0  0  0  0  0  0  0  0  0  0
   -6.8172   -4.8271   29.8436 C   0  0  0  0  0  0  0  0  0  0  0  0
   -5.5399   -3.5737   30.4119 S   0  0  0  0  0  0  0  0  0  0  0  0
   -4.4283   -3.3883   28.9538 C   0  0  0  0  0  0  0  0  0  0  0  0
   -4.8097   -4.1986   27.7223 C   0  0  0  0  0  0  0  0  0  0  0  0
   -9.6263   -9.8689   29.7423 H   0  0  0  0  0  0  0  0  0  0  0  0
   -9.4216  -11.3693   30.0782 H   0  0  0  0  0  0  0  0  0  0  0  0
   -9.5491  -11.3194   29.8719 H   0  0  0  0  0  0  0  0  0  0  0  0
  -10.6038  -14.5404   28.9660 H   0  0  0  0  0  0  0  0  0  0  0  0
  -12.4653  -13.6100   29.0162 H   0  0  0  0  0  0  0  0  0  0  0  0
  -12.1651  -15.0929   28.2072 H   0  0  0  0  0  0  0  0  0  0  0  0
  -13.3627  -14.7382   30.9998 H   0  0  0  0  0  0  0  0  0  0  0  0
  -14.0153  -15.4375   29.5623 H   0  0  0  0  0  0  0  0  0  0  0  0
  -12.5151  -16.9626   29.3815 H   0  0  0  0  0  0  0  0  0  0  0  0
  -12.6420  -16.5907   31.4744 H   0  0  0  0  0  0  0  0  0  0  0  0
  -12.0211  -20.8517   30.1457 H   0  0  0  0  0  0  0  0  0  0  0  0
  -10.4116  -21.1871   29.8797 H   0  0  0  0  0  0  0  0  0  0  0  0
  -11.6280  -21.5141   32.4054 H   0  0  0  0  0  0  0  0  0  0  0  0
   -3.8574   -6.7800   27.0756 H   0  0  0  0  0  0  0  0  0  0  0  0
   -7.5433   -4.2615   29.2499 H   0  0  0  0  0  0  0  0  0  0  0  0
   -7.2491   -5.1778   30.7852 H   0  0  0  0  0  0  0  0  0  0  0  0
   -4.3668   -2.3248   28.7012 H   0  0  0  0  0  0  0  0  0  0  0  0
   -3.4317   -3.6917   29.2951 H   0  0  0  0  0  0  0  0  0  0  0  0
   -3.9717   -4.2189   27.0165 H   0  0  0  0  0  0  0  0  0  0  0  0
   -5.6476   -3.7151   27.2050 H   0  0  0  0  0  0  0  0  0  0  0  0
  1  2  2  0
  2  3  1  0
  3  4  1  0
  4  5  1  0
  5  6  1  0
  6  7  1  0
  7  8  1  0
  8  9  1  0
  9 10  1  0
 10 11  2  0
 10 12  1  0
 12 13  1  0
  2 14  1  0
 14 15  2  0
 15 16  1  0
 16 17  1  0
 17 18  2  0
 18 19  1  0
 19 20  1  0
 20 21  1  0
 21 22  1  0
  9  5  1  0
 18 14  1  0
 22 17  1  0
  3 23  1  0
  4 24  1  0
  4 25  1  0
  5 26  1  0
  6 27  1  0
  6 28  1  0
  7 29  1  0
  7 30  1  0
  8 31  1  0
  8 32  1  0
 12 33  1  0
 12 34  1  0
 13 35  1  0
 16 36  1  0
 19 37  1  0
 19 38  1  0
 21 39  1  0
 21 40  1  0
 22 41  1  0
 22 42  1  0
M  END
>  <Energy>  (820) 
3208.8217757863463

>  <compound_id>  (820) 
47061

>  <target_id>  (820) 
1

>  <reference_id>  (820) 
123

>  <inspiration_ids>  (820) 
[53, 123]

>  <energy_score>  (820) 
3076.4654667669624

>  <distance_score>  (820) 
12.353228586728754

>  <path>  (820) 
/opt/xchem-fragalysis-2/maxwin/BulkDock/SCRATCH/511024/C47061-P123/C47061-P123.minimised.mol

>  <scratch_subdir>  (820) 
/opt/xchem-fragalysis-2/maxwin/BulkDock/SCRATCH/511024/C47061-P123

>  <fragmenstein_runtime>  (820) 
17.386188507080078

>  <fragmenstein_outcome>  (820) 
too moved

>  <fragmenstein_mode>  (820) 
expansion

>  <fragmenstein_error>  (820) 


$$$$
C36377-P53
     RDKit          3D

 34 35  0  0  0  0  0  0  0  0999 V2000
   -7.8985   -8.9111   22.7704 O   0  0  0  0  0  0  0  0  0  0  0  0
   -8.6787   -8.1622   23.2782 C   0  0  0  0  0  0  0  0  0  0  0  0
   -9.7230   -8.4020   24.2221 N   0  0  0  0  0  0  0  0  0  0  0  0
  -10.1043   -9.6024   24.9329 C   0  0  0  0  0  0  0  0  0  0  0  0
  -10.3740  -11.0085   24.2932 C   0  0  0  0  0  0  0  0  0  0  0  0
   -9.0717  -11.8171   24.2719 C   0  0  0  0  0  0  0  0  0  0  0  0
   -9.4727  -12.9619   23.4197 C   0  0  0  0  0  0  0  0  0  0  0  0
  -10.8894  -12.5446   23.1359 C   0  0  0  0  0  0  0  0  0  0  0  0
  -11.1099  -11.0710   22.9339 N   0  0  0  0  0  0  0  0  0  0  0  0
  -12.3067  -10.2932   22.9793 C   0  0  0  0  0  0  0  0  0  0  0  0
  -13.4339  -10.6044   23.2796 O   0  0  0  0  0  0  0  0  0  0  0  0
  -12.0865   -8.8642   22.4558 C   0  0  0  0  0  0  0  0  0  0  0  0
  -13.1881   -8.4534   21.6456 O   0  0  0  0  0  0  0  0  0  0  0  0
   -8.5877   -6.6822   23.0361 C   0  0  0  0  0  0  0  0  0  0  0  0
   -7.8972   -6.0015   21.9971 C   0  0  0  0  0  0  0  0  0  0  0  0
   -8.1213   -4.6621   22.2140 C   0  0  0  0  0  0  0  0  0  0  0  0
   -8.8499   -4.5856   23.3604 N   0  0  0  0  0  0  0  0  0  0  0  0
   -9.1773   -5.7896   23.8715 N   0  0  0  0  0  0  0  0  0  0  0  0
  -10.1340   -7.5073   24.4968 H   0  0  0  0  0  0  0  0  0  0  0  0
  -11.0187   -9.3124   25.4671 H   0  0  0  0  0  0  0  0  0  0  0  0
   -9.3308   -9.7261   25.6951 H   0  0  0  0  0  0  0  0  0  0  0  0
  -11.0465  -11.4510   25.0560 H   0  0  0  0  0  0  0  0  0  0  0  0
   -8.2472  -11.2627   23.8147 H   0  0  0  0  0  0  0  0  0  0  0  0
   -8.7606  -12.1294   25.2723 H   0  0  0  0  0  0  0  0  0  0  0  0
   -9.4158  -13.9308   23.9230 H   0  0  0  0  0  0  0  0  0  0  0  0
   -8.8714  -13.0031   22.5055 H   0  0  0  0  0  0  0  0  0  0  0  0
  -11.1997  -12.9993   22.1849 H   0  0  0  0  0  0  0  0  0  0  0  0
  -11.6224  -12.9555   23.8513 H   0  0  0  0  0  0  0  0  0  0  0  0
  -12.0473   -8.1775   23.3024 H   0  0  0  0  0  0  0  0  0  0  0  0
  -11.1793   -8.7944   21.8520 H   0  0  0  0  0  0  0  0  0  0  0  0
  -13.9688   -8.9037   22.0255 H   0  0  0  0  0  0  0  0  0  0  0  0
   -7.3309   -6.4500   21.1921 H   0  0  0  0  0  0  0  0  0  0  0  0
   -7.8106   -3.7782   21.6751 H   0  0  0  0  0  0  0  0  0  0  0  0
   -9.1781   -3.7514   23.8369 H   0  0  0  0  0  0  0  0  0  0  0  0
  1  2  2  0
  2  3  1  0
  3  4  1  0
  4  5  1  0
  5  6  1  0
  6  7  1  0
  7  8  1  0
  8  9  1  0
  9 10  1  0
 10 11  2  0
 10 12  1  0
 12 13  1  0
  2 14  1  0
 14 15  1  0
 15 16  2  0
 16 17  1  0
 17 18  1  0
  9  5  1  0
 18 14  2  0
  3 19  1  0
  4 20  1  0
  4 21  1  0
  5 22  1  0
  6 23  1  0
  6 24  1  0
  7 25  1  0
  7 26  1  0
  8 27  1  0
  8 28  1  0
 12 29  1  0
 12 30  1  0
 13 31  1  0
 15 32  1  0
 16 33  1  0
 17 34  1  0
M  END
>  <Energy>  (821) 
132.52440453072182

>  <compound_id>  (821) 
36377

>  <target_id>  (821) 
1

>  <reference_id>  (821) 
53

>  <inspiration_ids>  (821) 
[53, 123]

>  <energy_score>  (821) 
28.3479300487885

>  <distance_score>  (821) 
14.088490238802313

>  <path>  (821) 
/opt/xchem-fragalysis-2/maxwin/BulkDock/SCRATCH/511024/C36377-P53/C36377-P53.minimised.mol

>  <scratch_subdir>  (821) 
/opt/xchem-fragalysis-2/maxwin/BulkDock/SCRATCH/511024/C36377-P53

>  <fragmenstein_runtime>  (821) 
30.456013441085815

>  <fragmenstein_outcome>  (821) 
too moved

>  <fragmenstein_mode>  (821) 
expansion

>  <fragmenstein_error>  (821) 


$$$$
C36377-P123
     RDKit          3D

 34 35  0  0  0  0  0  0  0  0999 V2000
   -4.5607  -11.9681   30.6637 O   0  0  0  0  0  0  0  0  0  0  0  0
   -5.4110  -11.5380   31.4089 C   0  0  0  0  0  0  0  0  0  0  0  0
   -6.8198  -12.2711   31.8557 N   0  0  0  0  0  0  0  0  0  0  0  0
   -7.4958  -14.0235   31.4965 C   0  0  0  0  0  0  0  0  0  0  0  0
   -9.4114  -14.3478   32.1311 C   0  0  0  0  0  0  0  0  0  0  0  0
  -10.4772  -14.5551   30.3932 C   0  0  0  0  0  0  0  0  0  0  0  0
  -11.2543  -15.6365   31.4545 C   0  0  0  0  0  0  0  0  0  0  0  0
   -9.9035  -16.0384   32.9232 C   0  0  0  0  0  0  0  0  0  0  0  0
  -10.7113  -15.1657   33.4152 N   0  0  0  0  0  0  0  0  0  0  0  0
  -12.5336  -15.1454   33.4626 C   0  0  0  0  0  0  0  0  0  0  0  0
  -13.2019  -15.9944   32.9078 O   0  0  0  0  0  0  0  0  0  0  0  0
  -13.5335  -14.1531   34.3231 C   0  0  0  0  0  0  0  0  0  0  0  0
  -13.2483  -14.1330   35.7087 O   0  0  0  0  0  0  0  0  0  0  0  0
   -4.8283   -9.9028   32.2031 C   0  0  0  0  0  0  0  0  0  0  0  0
   -4.9012   -9.2083   33.4946 C   0  0  0  0  0  0  0  0  0  0  0  0
   -4.0498   -8.1235   33.5638 C   0  0  0  0  0  0  0  0  0  0  0  0
   -3.2600   -8.2965   32.5062 N   0  0  0  0  0  0  0  0  0  0  0  0
   -3.5452   -9.4112   31.8428 N   0  0  0  0  0  0  0  0  0  0  0  0
   -7.3536  -11.6436   32.3974 H   0  0  0  0  0  0  0  0  0  0  0  0
   -7.4876  -13.8911   30.4255 H   0  0  0  0  0  0  0  0  0  0  0  0
   -6.7080  -14.7392   31.3304 H   0  0  0  0  0  0  0  0  0  0  0  0
   -9.5074  -13.4102   32.7505 H   0  0  0  0  0  0  0  0  0  0  0  0
   -9.5718  -14.4377   29.7728 H   0  0  0  0  0  0  0  0  0  0  0  0
  -11.3457  -14.3729   29.7194 H   0  0  0  0  0  0  0  0  0  0  0  0
  -11.7844  -16.3531   30.8418 H   0  0  0  0  0  0  0  0  0  0  0  0
  -12.1377  -15.0444   31.6144 H   0  0  0  0  0  0  0  0  0  0  0  0
   -9.9849  -16.8135   33.7131 H   0  0  0  0  0  0  0  0  0  0  0  0
   -8.8039  -15.9497   32.8719 H   0  0  0  0  0  0  0  0  0  0  0  0
  -14.5202  -14.6351   34.2484 H   0  0  0  0  0  0  0  0  0  0  0  0
  -13.7474  -13.1599   33.9435 H   0  0  0  0  0  0  0  0  0  0  0  0
  -13.3677  -15.0500   36.0249 H   0  0  0  0  0  0  0  0  0  0  0  0
   -5.4263   -9.4792   34.3795 H   0  0  0  0  0  0  0  0  0  0  0  0
   -3.8769   -7.3909   34.3399 H   0  0  0  0  0  0  0  0  0  0  0  0
   -2.4263   -7.7775   32.2502 H   0  0  0  0  0  0  0  0  0  0  0  0
  1  2  2  0
  2  3  1  0
  3  4  1  0
  4  5  1  0
  5  6  1  0
  6  7  1  0
  7  8  1  0
  8  9  1  0
  9 10  1  0
 10 11  2  0
 10 12  1  0
 12 13  1  0
  2 14  1  0
 14 15  1  0
 15 16  2  0
 16 17  1  0
 17 18  1  0
  9  5  1  0
 18 14  2  0
  3 19  1  0
  4 20  1  0
  4 21  1  0
  5 22  1  0
  6 23  1  0
  6 24  1  0
  7 25  1  0
  7 26  1  0
  8 27  1  0
  8 28  1  0
 12 29  1  0
 12 30  1  0
 13 31  1  0
 15 32  1  0
 16 33  1  0
 17 34  1  0
M  END
>  <Energy>  (822) 
878.29669043444414

>  <compound_id>  (822) 
36377

>  <target_id>  (822) 
1

>  <reference_id>  (822) 
123

>  <inspiration_ids>  (822) 
[53, 123]

>  <energy_score>  (822) 
774.120215952504

>  <distance_score>  (822) 
12.62801974874261

>  <path>  (822) 
/opt/xchem-fragalysis-2/maxwin/BulkDock/SCRATCH/511024/C36377-P123/C36377-P123.minimised.mol

>  <scratch_subdir>  (822) 
/opt/xchem-fragalysis-2/maxwin/BulkDock/SCRATCH/511024/C36377-P123

>  <fragmenstein_runtime>  (822) 
32.595723152160645

>  <fragmenstein_outcome>  (822) 
too moved

>  <fragmenstein_mode>  (822) 
expansion

>  <fragmenstein_error>  (822) 


$$$$
C47062-P53
     RDKit          3D

 41 43  0  0  0  0  0  0  0  0999 V2000
   -7.3914  -13.8114   29.8297 O   0  0  0  0  0  0  0  0  0  0  0  0
   -7.0786  -13.8622   28.6855 C   0  0  0  0  0  0  0  0  0  0  0  0
   -6.4280  -11.9702   28.0464 N   0  0  0  0  0  0  0  0  0  0  0  0
   -6.4669   -9.8518   28.9947 C   0  0  0  0  0  0  0  0  0  0  0  0
   -5.9981   -7.5093   29.0655 C   0  0  0  0  0  0  0  0  0  0  0  0
   -6.6301   -6.0803   30.5266 C   0  0  0  0  0  0  0  0  0  0  0  0
   -7.5055   -4.6052   29.8404 C   0  0  0  0  0  0  0  0  0  0  0  0
   -7.1821   -5.4612   28.3057 C   0  0  0  0  0  0  0  0  0  0  0  0
   -5.8065   -5.4445   28.4799 N   0  0  0  0  0  0  0  0  0  0  0  0
   -5.4617   -4.1593   29.3313 C   0  0  0  0  0  0  0  0  0  0  0  0
   -5.3448   -4.0023   30.5642 O   0  0  0  0  0  0  0  0  0  0  0  0
   -5.0824   -2.9495   28.2450 C   0  0  0  0  0  0  0  0  0  0  0  0
   -3.7674   -1.9708   27.9268 O   0  0  0  0  0  0  0  0  0  0  0  0
   -7.6706  -15.7900   27.9410 C   0  0  0  0  0  0  0  0  0  0  0  0
   -8.7721  -15.7773   27.0540 N   0  0  0  0  0  0  0  0  0  0  0  0
   -9.4947  -17.0458   27.0493 N   0  0  0  0  0  0  0  0  0  0  0  0
   -9.2040  -18.2681   27.9736 C   0  0  0  0  0  0  0  0  0  0  0  0
   -7.9595  -17.8259   28.1116 C   0  0  0  0  0  0  0  0  0  0  0  0
   -6.9937  -19.4021   26.9427 C   0  0  0  0  0  0  0  0  0  0  0  0
   -7.7582  -20.9363   27.4723 C   0  0  0  0  0  0  0  0  0  0  0  0
   -9.4629  -20.2731   27.9127 C   0  0  0  0  0  0  0  0  0  0  0  0
   -6.2425  -12.0256   27.0162 H   0  0  0  0  0  0  0  0  0  0  0  0
   -7.4126   -9.4550   28.5797 H   0  0  0  0  0  0  0  0  0  0  0  0
   -6.8241  -10.1020   29.9636 H   0  0  0  0  0  0  0  0  0  0  0  0
   -6.8202   -6.9838   29.1589 H   0  0  0  0  0  0  0  0  0  0  0  0
   -7.2920   -6.3795   31.3774 H   0  0  0  0  0  0  0  0  0  0  0  0
   -6.0412   -5.6342   31.3091 H   0  0  0  0  0  0  0  0  0  0  0  0
   -7.2164   -3.5752   30.0250 H   0  0  0  0  0  0  0  0  0  0  0  0
   -8.5680   -4.4708   30.1788 H   0  0  0  0  0  0  0  0  0  0  0  0
   -7.7493   -5.3675   27.3476 H   0  0  0  0  0  0  0  0  0  0  0  0
   -7.4197   -4.3895   28.0606 H   0  0  0  0  0  0  0  0  0  0  0  0
   -4.1733   -3.3213   28.6028 H   0  0  0  0  0  0  0  0  0  0  0  0
   -5.0286   -3.1338   27.2122 H   0  0  0  0  0  0  0  0  0  0  0  0
   -3.1394   -2.5192   27.4041 H   0  0  0  0  0  0  0  0  0  0  0  0
  -10.2330  -17.0792   26.3680 H   0  0  0  0  0  0  0  0  0  0  0  0
   -5.8416  -19.3516   27.0969 H   0  0  0  0  0  0  0  0  0  0  0  0
   -6.7787  -19.5281   25.8590 H   0  0  0  0  0  0  0  0  0  0  0  0
   -7.3377  -21.6306   28.1795 H   0  0  0  0  0  0  0  0  0  0  0  0
   -7.5305  -21.6764   26.7078 H   0  0  0  0  0  0  0  0  0  0  0  0
  -10.1425  -20.5987   27.1247 H   0  0  0  0  0  0  0  0  0  0  0  0
  -10.1932  -20.8252   28.6453 H   0  0  0  0  0  0  0  0  0  0  0  0
  1  2  2  0
  2  3  1  0
  3  4  1  0
  4  5  1  0
  5  6  1  0
  6  7  1  0
  7  8  1  0
  8  9  1  0
  9 10  1  0
 10 11  2  0
 10 12  1  0
 12 13  1  0
  2 14  1  0
 14 15  2  0
 15 16  1  0
 16 17  1  0
 17 18  2  0
 18 19  1  0
 19 20  1  0
 20 21  1  0
  9  5  1  0
 18 14  1  0
 21 17  1  0
  3 22  1  0
  4 23  1  0
  4 24  1  0
  5 25  1  0
  6 26  1  0
  6 27  1  0
  7 28  1  0
  7 29  1  0
  8 30  1  0
  8 31  1  0
 12 32  1  0
 12 33  1  0
 13 34  1  0
 16 35  1  0
 19 36  1  0
 19 37  1  0
 20 38  1  0
 20 39  1  0
 21 40  1  0
 21 41  1  0
M  END
>  <Energy>  (823) 
2353.0891678970706

>  <compound_id>  (823) 
47062

>  <target_id>  (823) 
1

>  <reference_id>  (823) 
53

>  <inspiration_ids>  (823) 
[53, 123]

>  <energy_score>  (823) 
2231.510101606894

>  <distance_score>  (823) 
8.86449905543494

>  <path>  (823) 
/opt/xchem-fragalysis-2/maxwin/BulkDock/SCRATCH/511024/C47062-P53/C47062-P53.minimised.mol

>  <scratch_subdir>  (823) 
/opt/xchem-fragalysis-2/maxwin/BulkDock/SCRATCH/511024/C47062-P53

>  <fragmenstein_runtime>  (823) 
19.9441180229187

>  <fragmenstein_outcome>  (823) 
too moved

>  <fragmenstein_mode>  (823) 
expansion

>  <fragmenstein_error>  (823) 


$$$$
C47062-P123
     RDKit          3D

 41 43  0  0  0  0  0  0  0  0999 V2000
   -6.5852  -12.3374   25.9955 O   0  0  0  0  0  0  0  0  0  0  0  0
   -6.0615  -12.5545   27.0739 C   0  0  0  0  0  0  0  0  0  0  0  0
   -4.4245  -12.1142   27.6735 N   0  0  0  0  0  0  0  0  0  0  0  0
   -2.9315  -11.2970   26.8043 C   0  0  0  0  0  0  0  0  0  0  0  0
   -1.2138  -10.2875   27.6826 C   0  0  0  0  0  0  0  0  0  0  0  0
   -0.4066  -10.2775   29.2359 C   0  0  0  0  0  0  0  0  0  0  0  0
    1.0315  -10.0673   28.9616 C   0  0  0  0  0  0  0  0  0  0  0  0
    0.8267   -9.5184   27.6057 C   0  0  0  0  0  0  0  0  0  0  0  0
   -0.4312   -8.6694   27.6316 N   0  0  0  0  0  0  0  0  0  0  0  0
   -0.3774   -7.6800   26.5918 C   0  0  0  0  0  0  0  0  0  0  0  0
   -0.7646   -7.7172   25.4595 O   0  0  0  0  0  0  0  0  0  0  0  0
    0.3254   -6.4579   27.2173 C   0  0  0  0  0  0  0  0  0  0  0  0
   -0.5583   -5.3860   27.4562 O   0  0  0  0  0  0  0  0  0  0  0  0
   -6.8828  -13.6292   28.4346 C   0  0  0  0  0  0  0  0  0  0  0  0
   -6.1029  -13.3486   29.6198 N   0  0  0  0  0  0  0  0  0  0  0  0
   -6.2418  -14.2894   30.4758 N   0  0  0  0  0  0  0  0  0  0  0  0
   -5.7912  -15.4692   29.9749 C   0  0  0  0  0  0  0  0  0  0  0  0
   -6.5426  -15.2051   28.7433 C   0  0  0  0  0  0  0  0  0  0  0  0
   -7.1262  -16.6545   28.3172 C   0  0  0  0  0  0  0  0  0  0  0  0
   -5.5838  -17.4795   29.0973 C   0  0  0  0  0  0  0  0  0  0  0  0
   -5.3590  -16.8857   30.4440 C   0  0  0  0  0  0  0  0  0  0  0  0
   -4.3261  -12.3710   28.6755 H   0  0  0  0  0  0  0  0  0  0  0  0
   -3.1809  -11.4545   27.9871 H   0  0  0  0  0  0  0  0  0  0  0  0
   -2.6928  -12.1171   26.1125 H   0  0  0  0  0  0  0  0  0  0  0  0
   -1.7997  -10.3756   28.5944 H   0  0  0  0  0  0  0  0  0  0  0  0
   -0.6610  -11.0000   29.9923 H   0  0  0  0  0  0  0  0  0  0  0  0
   -0.6963   -9.3575   29.7841 H   0  0  0  0  0  0  0  0  0  0  0  0
    1.4773   -9.3426   29.6510 H   0  0  0  0  0  0  0  0  0  0  0  0
    1.6478  -10.9639   28.9609 H   0  0  0  0  0  0  0  0  0  0  0  0
    1.6588   -8.8250   27.4123 H   0  0  0  0  0  0  0  0  0  0  0  0
    0.9872  -10.2588   26.8230 H   0  0  0  0  0  0  0  0  0  0  0  0
    0.7865   -6.7185   28.1764 H   0  0  0  0  0  0  0  0  0  0  0  0
    1.1379   -6.1601   26.5529 H   0  0  0  0  0  0  0  0  0  0  0  0
   -0.0298   -4.6361   27.7818 H   0  0  0  0  0  0  0  0  0  0  0  0
   -6.9242  -14.1276   31.2009 H   0  0  0  0  0  0  0  0  0  0  0  0
   -7.9335  -17.3830   28.5330 H   0  0  0  0  0  0  0  0  0  0  0  0
   -7.7360  -16.4694   27.4134 H   0  0  0  0  0  0  0  0  0  0  0  0
   -5.1750  -18.2569   28.4526 H   0  0  0  0  0  0  0  0  0  0  0  0
   -4.5629  -17.0378   28.8319 H   0  0  0  0  0  0  0  0  0  0  0  0
   -5.8903  -17.3646   31.2680 H   0  0  0  0  0  0  0  0  0  0  0  0
   -4.2931  -16.9999   30.6924 H   0  0  0  0  0  0  0  0  0  0  0  0
  1  2  2  0
  2  3  1  0
  3  4  1  0
  4  5  1  0
  5  6  1  0
  6  7  1  0
  7  8  1  0
  8  9  1  0
  9 10  1  0
 10 11  2  0
 10 12  1  0
 12 13  1  0
  2 14  1  0
 14 15  2  0
 15 16  1  0
 16 17  1  0
 17 18  2  0
 18 19  1  0
 19 20  1  0
 20 21  1  0
  9  5  1  0
 18 14  1  0
 21 17  1  0
  3 22  1  0
  4 23  1  0
  4 24  1  0
  5 25  1  0
  6 26  1  0
  6 27  1  0
  7 28  1  0
  7 29  1  0
  8 30  1  0
  8 31  1  0
 12 32  1  0
 12 33  1  0
 13 34  1  0
 16 35  1  0
 19 36  1  0
 19 37  1  0
 20 38  1  0
 20 39  1  0
 21 40  1  0
 21 41  1  0
M  END
>  <Energy>  (824) 
860.16826683172735

>  <compound_id>  (824) 
47062

>  <target_id>  (824) 
1

>  <reference_id>  (824) 
123

>  <inspiration_ids>  (824) 
[53, 123]

>  <energy_score>  (824) 
738.5892005415426

>  <distance_score>  (824) 
11.30612440511825

>  <path>  (824) 
/opt/xchem-fragalysis-2/maxwin/BulkDock/SCRATCH/511024/C47062-P123/C47062-P123.minimised.mol

>  <scratch_subdir>  (824) 
/opt/xchem-fragalysis-2/maxwin/BulkDock/SCRATCH/511024/C47062-P123

>  <fragmenstein_runtime>  (824) 
26.384841680526733

>  <fragmenstein_outcome>  (824) 
too moved

>  <fragmenstein_mode>  (824) 
expansion

>  <fragmenstein_error>  (824) 


$$$$
C47063-P53
     RDKit          3D

 44 46  0  0  0  0  0  0  0  0999 V2000
   -2.9775  -15.7750   32.0076 O   0  0  0  0  0  0  0  0  0  0  0  0
   -3.8030  -15.4625   31.1924 C   0  0  0  0  0  0  0  0  0  0  0  0
   -5.4164  -15.9020   31.1206 N   0  0  0  0  0  0  0  0  0  0  0  0
   -6.4946  -17.1937   32.2520 C   0  0  0  0  0  0  0  0  0  0  0  0
   -7.4514  -18.7181   33.3026 C   0  0  0  0  0  0  0  0  0  0  0  0
   -8.9685  -18.7781   34.0257 C   0  0  0  0  0  0  0  0  0  0  0  0
   -8.9218  -20.1586   34.5240 C   0  0  0  0  0  0  0  0  0  0  0  0
   -7.5633  -20.6394   34.3057 C   0  0  0  0  0  0  0  0  0  0  0  0
   -7.0406  -19.6038   35.0358 N   0  0  0  0  0  0  0  0  0  0  0  0
   -7.5934  -18.8910   36.3165 C   0  0  0  0  0  0  0  0  0  0  0  0
   -8.6590  -19.0310   36.9032 O   0  0  0  0  0  0  0  0  0  0  0  0
   -6.6839  -17.9319   37.1020 C   0  0  0  0  0  0  0  0  0  0  0  0
   -7.4806  -17.0548   37.9102 O   0  0  0  0  0  0  0  0  0  0  0  0
   -3.0264  -14.5167   29.8774 C   0  0  0  0  0  0  0  0  0  0  0  0
   -2.0582  -15.0025   29.0167 N   0  0  0  0  0  0  0  0  0  0  0  0
   -1.7191  -14.1147   28.0628 N   0  0  0  0  0  0  0  0  0  0  0  0
   -2.4099  -12.5604   28.3469 C   0  0  0  0  0  0  0  0  0  0  0  0
   -3.0825  -12.8073   29.4480 C   0  0  0  0  0  0  0  0  0  0  0  0
   -3.2066  -11.4608   29.7402 C   0  0  0  0  0  0  0  0  0  0  0  0
   -1.5767  -10.5151   30.0405 C   0  0  0  0  0  0  0  0  0  0  0  0
   -1.0410  -10.0229   28.7907 C   0  0  0  0  0  0  0  0  0  0  0  0
   -2.0315  -11.2259   27.7899 C   0  0  0  0  0  0  0  0  0  0  0  0
   -5.8229  -15.5435   30.2714 H   0  0  0  0  0  0  0  0  0  0  0  0
   -5.6032  -17.5329   32.6691 H   0  0  0  0  0  0  0  0  0  0  0  0
   -7.2574  -16.5035   32.4441 H   0  0  0  0  0  0  0  0  0  0  0  0
   -7.9736  -17.7492   33.4502 H   0  0  0  0  0  0  0  0  0  0  0  0
   -9.2179  -18.0215   34.7857 H   0  0  0  0  0  0  0  0  0  0  0  0
   -9.7716  -18.8539   33.3617 H   0  0  0  0  0  0  0  0  0  0  0  0
   -9.4764  -20.6122   33.7970 H   0  0  0  0  0  0  0  0  0  0  0  0
   -9.3885  -20.3358   35.4886 H   0  0  0  0  0  0  0  0  0  0  0  0
   -7.4300  -21.5623   34.8807 H   0  0  0  0  0  0  0  0  0  0  0  0
   -6.9764  -20.7933   33.4023 H   0  0  0  0  0  0  0  0  0  0  0  0
   -5.9014  -17.3815   36.6247 H   0  0  0  0  0  0  0  0  0  0  0  0
   -6.1532  -18.5817   37.8110 H   0  0  0  0  0  0  0  0  0  0  0  0
   -8.3063  -17.5605   38.0701 H   0  0  0  0  0  0  0  0  0  0  0  0
   -1.5972  -14.3843   27.1044 H   0  0  0  0  0  0  0  0  0  0  0  0
   -3.8511  -11.4354   28.8813 H   0  0  0  0  0  0  0  0  0  0  0  0
   -3.8838  -11.0443   30.4181 H   0  0  0  0  0  0  0  0  0  0  0  0
   -0.8493  -11.1420   30.5524 H   0  0  0  0  0  0  0  0  0  0  0  0
   -1.6853   -9.7110   30.7928 H   0  0  0  0  0  0  0  0  0  0  0  0
    0.0413   -9.9578   28.6153 H   0  0  0  0  0  0  0  0  0  0  0  0
   -1.1149   -8.9173   28.8304 H   0  0  0  0  0  0  0  0  0  0  0  0
   -1.2570  -11.2051   27.1997 H   0  0  0  0  0  0  0  0  0  0  0  0
   -2.5683  -11.2357   26.8476 H   0  0  0  0  0  0  0  0  0  0  0  0
  1  2  2  0
  2  3  1  0
  3  4  1  0
  4  5  1  0
  5  6  1  0
  6  7  1  0
  7  8  1  0
  8  9  1  0
  9 10  1  0
 10 11  2  0
 10 12  1  0
 12 13  1  0
  2 14  1  0
 14 15  2  0
 15 16  1  0
 16 17  1  0
 17 18  2  0
 18 19  1  0
 19 20  1  0
 20 21  1  0
 21 22  1  0
  9  5  1  0
 18 14  1  0
 22 17  1  0
  3 23  1  0
  4 24  1  0
  4 25  1  0
  5 26  1  0
  6 27  1  0
  6 28  1  0
  7 29  1  0
  7 30  1  0
  8 31  1  0
  8 32  1  0
 12 33  1  0
 12 34  1  0
 13 35  1  0
 16 36  1  0
 19 37  1  0
 19 38  1  0
 20 39  1  0
 20 40  1  0
 21 41  1  0
 21 42  1  0
 22 43  1  0
 22 44  1  0
M  END
>  <Energy>  (825) 
986.7778283099658

>  <compound_id>  (825) 
47063

>  <target_id>  (825) 
1

>  <reference_id>  (825) 
53

>  <inspiration_ids>  (825) 
[53, 123]

>  <energy_score>  (825) 
864.7515939479749

>  <distance_score>  (825) 
14.883304705332108

>  <path>  (825) 
/opt/xchem-fragalysis-2/maxwin/BulkDock/SCRATCH/511024/C47063-P53/C47063-P53.minimised.mol

>  <scratch_subdir>  (825) 
/opt/xchem-fragalysis-2/maxwin/BulkDock/SCRATCH/511024/C47063-P53

>  <fragmenstein_runtime>  (825) 
17.884833097457886

>  <fragmenstein_outcome>  (825) 
too moved

>  <fragmenstein_mode>  (825) 
expansion

>  <fragmenstein_error>  (825) 


$$$$
C47063-P123
     RDKit          3D

 44 46  0  0  0  0  0  0  0  0999 V2000
   -5.4942   -3.5615   28.9499 O   0  0  0  0  0  0  0  0  0  0  0  0
   -5.5933   -3.6827   27.7637 C   0  0  0  0  0  0  0  0  0  0  0  0
   -6.0131   -4.7981   26.9700 N   0  0  0  0  0  0  0  0  0  0  0  0
   -6.3577   -6.1586   27.3439 C   0  0  0  0  0  0  0  0  0  0  0  0
   -7.6219   -6.3360   28.2523 C   0  0  0  0  0  0  0  0  0  0  0  0
   -7.9026   -7.7884   28.6769 C   0  0  0  0  0  0  0  0  0  0  0  0
   -9.0679   -8.0976   27.8171 C   0  0  0  0  0  0  0  0  0  0  0  0
   -9.1022   -6.8218   27.0106 C   0  0  0  0  0  0  0  0  0  0  0  0
   -8.8842   -5.5643   27.7874 N   0  0  0  0  0  0  0  0  0  0  0  0
   -9.5858   -5.0303   28.9234 C   0  0  0  0  0  0  0  0  0  0  0  0
  -10.4674   -5.5032   29.5906 O   0  0  0  0  0  0  0  0  0  0  0  0
   -9.0616   -3.6033   29.1908 C   0  0  0  0  0  0  0  0  0  0  0  0
   -8.7018   -2.9003   28.0075 O   0  0  0  0  0  0  0  0  0  0  0  0
   -5.2426   -2.5476   26.8465 C   0  0  0  0  0  0  0  0  0  0  0  0
   -4.8215   -2.7902   25.5810 N   0  0  0  0  0  0  0  0  0  0  0  0
   -4.7852   -1.5786   24.9922 N   0  0  0  0  0  0  0  0  0  0  0  0
   -5.0911   -0.5587   25.8397 C   0  0  0  0  0  0  0  0  0  0  0  0
   -5.3634   -1.1451   27.0587 C   0  0  0  0  0  0  0  0  0  0  0  0
   -5.8942   -0.3560   28.2007 C   0  0  0  0  0  0  0  0  0  0  0  0
   -6.5977    0.9016   27.6461 C   0  0  0  0  0  0  0  0  0  0  0  0
   -5.6647    1.6838   26.7076 C   0  0  0  0  0  0  0  0  0  0  0  0
   -5.3193    0.8673   25.4604 C   0  0  0  0  0  0  0  0  0  0  0  0
   -5.8920   -4.5671   25.9832 H   0  0  0  0  0  0  0  0  0  0  0  0
   -5.4834   -6.5799   27.8501 H   0  0  0  0  0  0  0  0  0  0  0  0
   -6.4767   -6.6878   26.3993 H   0  0  0  0  0  0  0  0  0  0  0  0
   -7.3269   -5.8259   29.1817 H   0  0  0  0  0  0  0  0  0  0  0  0
   -8.1863   -7.8436   29.7316 H   0  0  0  0  0  0  0  0  0  0  0  0
   -7.0461   -8.4453   28.5123 H   0  0  0  0  0  0  0  0  0  0  0  0
   -9.9795   -8.2295   28.4090 H   0  0  0  0  0  0  0  0  0  0  0  0
   -8.9366   -8.9608   27.1663 H   0  0  0  0  0  0  0  0  0  0  0  0
   -8.4878   -6.8455   26.1008 H   0  0  0  0  0  0  0  0  0  0  0  0
  -10.1258   -6.7226   26.6224 H   0  0  0  0  0  0  0  0  0  0  0  0
   -9.8473   -3.0303   29.6918 H   0  0  0  0  0  0  0  0  0  0  0  0
   -8.1925   -3.6614   29.8518 H   0  0  0  0  0  0  0  0  0  0  0  0
   -8.4377   -3.6004   27.3777 H   0  0  0  0  0  0  0  0  0  0  0  0
   -4.5196   -1.5134   24.0104 H   0  0  0  0  0  0  0  0  0  0  0  0
   -6.6087   -0.9438   28.7860 H   0  0  0  0  0  0  0  0  0  0  0  0
   -5.0698   -0.0710   28.8635 H   0  0  0  0  0  0  0  0  0  0  0  0
   -7.4952    0.6014   27.0873 H   0  0  0  0  0  0  0  0  0  0  0  0
   -6.9590    1.5357   28.4557 H   0  0  0  0  0  0  0  0  0  0  0  0
   -6.1338    2.6274   26.4123 H   0  0  0  0  0  0  0  0  0  0  0  0
   -4.7321    1.9228   27.2279 H   0  0  0  0  0  0  0  0  0  0  0  0
   -4.4623    1.3337   24.9775 H   0  0  0  0  0  0  0  0  0  0  0  0
   -6.1575    0.9116   24.7540 H   0  0  0  0  0  0  0  0  0  0  0  0
  1  2  2  0
  2  3  1  0
  3  4  1  0
  4  5  1  0
  5  6  1  0
  6  7  1  0
  7  8  1  0
  8  9  1  0
  9 10  1  0
 10 11  2  0
 10 12  1  0
 12 13  1  0
  2 14  1  0
 14 15  2  0
 15 16  1  0
 16 17  1  0
 17 18  2  0
 18 19  1  0
 19 20  1  0
 20 21  1  0
 21 22  1  0
  9  5  1  0
 18 14  1  0
 22 17  1  0
  3 23  1  0
  4 24  1  0
  4 25  1  0
  5 26  1  0
  6 27  1  0
  6 28  1  0
  7 29  1  0
  7 30  1  0
  8 31  1  0
  8 32  1  0
 12 33  1  0
 12 34  1  0
 13 35  1  0
 16 36  1  0
 19 37  1  0
 19 38  1  0
 20 39  1  0
 20 40  1  0
 21 41  1  0
 21 42  1  0
 22 43  1  0
 22 44  1  0
M  END
>  <Energy>  (826) 
136.50081204448156

>  <compound_id>  (826) 
47063

>  <target_id>  (826) 
1

>  <reference_id>  (826) 
123

>  <inspiration_ids>  (826) 
[53, 123]

>  <energy_score>  (826) 
14.474577682507913

>  <distance_score>  (826) 
13.63105065712711

>  <path>  (826) 
/opt/xchem-fragalysis-2/maxwin/BulkDock/SCRATCH/511024/C47063-P123/C47063-P123.minimised.mol

>  <scratch_subdir>  (826) 
/opt/xchem-fragalysis-2/maxwin/BulkDock/SCRATCH/511024/C47063-P123

>  <fragmenstein_runtime>  (826) 
23.646854639053345

>  <fragmenstein_outcome>  (826) 
too moved

>  <fragmenstein_mode>  (826) 
expansion

>  <fragmenstein_error>  (826) 


$$$$
C47064-P53
     RDKit          3D

 42 44  0  0  0  0  0  0  0  0999 V2000
   -8.7726  -15.8273   26.3915 O   0  0  0  0  0  0  0  0  0  0  0  0
   -9.8269  -15.2978   26.5276 C   0  0  0  0  0  0  0  0  0  0  0  0
  -10.4259  -14.2176   25.8051 N   0  0  0  0  0  0  0  0  0  0  0  0
   -9.9701  -13.4857   24.6041 C   0  0  0  0  0  0  0  0  0  0  0  0
   -9.3707  -12.0366   24.7609 C   0  0  0  0  0  0  0  0  0  0  0  0
   -8.0266  -11.8356   24.0534 C   0  0  0  0  0  0  0  0  0  0  0  0
   -7.9537  -10.3447   24.0378 C   0  0  0  0  0  0  0  0  0  0  0  0
   -9.3207  -10.0471   24.6126 C   0  0  0  0  0  0  0  0  0  0  0  0
  -10.3904  -11.0449   24.1944 N   0  0  0  0  0  0  0  0  0  0  0  0
  -11.6650  -10.6363   24.6868 C   0  0  0  0  0  0  0  0  0  0  0  0
  -12.2270  -10.8988   25.7199 O   0  0  0  0  0  0  0  0  0  0  0  0
  -12.3827   -9.7836   23.6243 C   0  0  0  0  0  0  0  0  0  0  0  0
  -13.5161   -9.1130   24.1620 O   0  0  0  0  0  0  0  0  0  0  0  0
  -10.7155  -15.9575   27.5823 C   0  0  0  0  0  0  0  0  0  0  0  0
  -11.9081  -15.4956   27.9904 N   0  0  0  0  0  0  0  0  0  0  0  0
  -12.4503  -16.5006   28.7270 N   0  0  0  0  0  0  0  0  0  0  0  0
  -11.7605  -17.7092   28.7648 C   0  0  0  0  0  0  0  0  0  0  0  0
  -10.5024  -17.2740   28.2077 C   0  0  0  0  0  0  0  0  0  0  0  0
   -9.2825  -18.2656   28.0065 C   0  0  0  0  0  0  0  0  0  0  0  0
   -9.6132  -20.2837   27.9811 C   0  0  0  0  0  0  0  0  0  0  0  0
  -11.4829  -21.4078   28.3205 S   0  0  0  0  0  0  0  0  0  0  0  0
  -12.3137  -19.5727   29.2922 C   0  0  0  0  0  0  0  0  0  0  0  0
  -11.3767  -14.0796   26.1439 H   0  0  0  0  0  0  0  0  0  0  0  0
   -9.1993  -14.1280   24.1616 H   0  0  0  0  0  0  0  0  0  0  0  0
  -10.8203  -13.4827   23.9130 H   0  0  0  0  0  0  0  0  0  0  0  0
   -9.2438  -11.9375   25.8312 H   0  0  0  0  0  0  0  0  0  0  0  0
   -7.2013  -12.3012   24.5974 H   0  0  0  0  0  0  0  0  0  0  0  0
   -8.0449  -12.2370   23.0341 H   0  0  0  0  0  0  0  0  0  0  0  0
   -7.1511   -9.9350   24.6557 H   0  0  0  0  0  0  0  0  0  0  0  0
   -7.8457   -9.9659   23.0165 H   0  0  0  0  0  0  0  0  0  0  0  0
   -9.3146   -9.8647   25.6948 H   0  0  0  0  0  0  0  0  0  0  0  0
   -9.6400   -9.0751   24.2107 H   0  0  0  0  0  0  0  0  0  0  0  0
  -11.7093   -9.0303   23.2084 H   0  0  0  0  0  0  0  0  0  0  0  0
  -12.7231  -10.4450   22.8218 H   0  0  0  0  0  0  0  0  0  0  0  0
  -13.7906   -9.6468   24.9350 H   0  0  0  0  0  0  0  0  0  0  0  0
  -13.3924  -16.3464   29.0668 H   0  0  0  0  0  0  0  0  0  0  0  0
   -8.4604  -18.1435   28.6483 H   0  0  0  0  0  0  0  0  0  0  0  0
   -8.7575  -17.7869   27.1835 H   0  0  0  0  0  0  0  0  0  0  0  0
   -8.6513  -20.8537   27.7705 H   0  0  0  0  0  0  0  0  0  0  0  0
  -10.0704  -20.2744   29.0513 H   0  0  0  0  0  0  0  0  0  0  0  0
  -13.3480  -19.6963   29.5365 H   0  0  0  0  0  0  0  0  0  0  0  0
  -11.6989  -19.9634   30.1078 H   0  0  0  0  0  0  0  0  0  0  0  0
  1  2  2  0
  2  3  1  0
  3  4  1  0
  4  5  1  0
  5  6  1  0
  6  7  1  0
  7  8  1  0
  8  9  1  0
  9 10  1  0
 10 11  2  0
 10 12  1  0
 12 13  1  0
  2 14  1  0
 14 15  2  0
 15 16  1  0
 16 17  1  0
 17 18  2  0
 18 19  1  0
 19 20  1  0
 20 21  1  0
 21 22  1  0
  9  5  1  0
 18 14  1  0
 22 17  1  0
  3 23  1  0
  4 24  1  0
  4 25  1  0
  5 26  1  0
  6 27  1  0
  6 28  1  0
  7 29  1  0
  7 30  1  0
  8 31  1  0
  8 32  1  0
 12 33  1  0
 12 34  1  0
 13 35  1  0
 16 36  1  0
 19 37  1  0
 19 38  1  0
 20 39  1  0
 20 40  1  0
 22 41  1  0
 22 42  1  0
M  END
>  <Energy>  (827) 
392.12947799786787

>  <compound_id>  (827) 
47064

>  <target_id>  (827) 
1

>  <reference_id>  (827) 
53

>  <inspiration_ids>  (827) 
[53, 123]

>  <energy_score>  (827) 
221.46031027091203

>  <distance_score>  (827) 
14.607472179110687

>  <path>  (827) 
/opt/xchem-fragalysis-2/maxwin/BulkDock/SCRATCH/511024/C47064-P53/C47064-P53.minimised.mol

>  <scratch_subdir>  (827) 
/opt/xchem-fragalysis-2/maxwin/BulkDock/SCRATCH/511024/C47064-P53

>  <fragmenstein_runtime>  (827) 
18.71860098838806

>  <fragmenstein_outcome>  (827) 
too moved

>  <fragmenstein_mode>  (827) 
expansion

>  <fragmenstein_error>  (827) 


$$$$
C47064-P123
     RDKit          3D

 42 44  0  0  0  0  0  0  0  0999 V2000
    0.9867  -21.7549   33.2444 O   0  0  0  0  0  0  0  0  0  0  0  0
    0.1191  -21.0657   32.7932 C   0  0  0  0  0  0  0  0  0  0  0  0
    0.1075  -19.6638   32.4643 N   0  0  0  0  0  0  0  0  0  0  0  0
    1.1719  -18.6676   32.4852 C   0  0  0  0  0  0  0  0  0  0  0  0
    0.7436  -17.2866   33.0891 C   0  0  0  0  0  0  0  0  0  0  0  0
    1.3061  -16.1175   32.2606 C   0  0  0  0  0  0  0  0  0  0  0  0
    1.1844  -15.0105   33.2512 C   0  0  0  0  0  0  0  0  0  0  0  0
    0.6693  -15.8258   34.4278 C   0  0  0  0  0  0  0  0  0  0  0  0
    1.2509  -17.2183   34.5233 N   0  0  0  0  0  0  0  0  0  0  0  0
    2.5806  -17.1643   35.0408 C   0  0  0  0  0  0  0  0  0  0  0  0
    3.6393  -17.0690   34.4726 O   0  0  0  0  0  0  0  0  0  0  0  0
    2.5444  -17.3278   36.5714 C   0  0  0  0  0  0  0  0  0  0  0  0
    3.7350  -16.8390   37.1767 O   0  0  0  0  0  0  0  0  0  0  0  0
   -1.1867  -21.6707   32.3716 C   0  0  0  0  0  0  0  0  0  0  0  0
   -2.1874  -20.8642   31.9672 N   0  0  0  0  0  0  0  0  0  0  0  0
   -3.0228  -21.6664   31.3056 N   0  0  0  0  0  0  0  0  0  0  0  0
   -2.6652  -22.9761   31.3288 C   0  0  0  0  0  0  0  0  0  0  0  0
   -1.5601  -23.0346   32.1555 C   0  0  0  0  0  0  0  0  0  0  0  0
   -0.8770  -24.3070   32.5010 C   0  0  0  0  0  0  0  0  0  0  0  0
   -1.7768  -25.5327   32.2591 C   0  0  0  0  0  0  0  0  0  0  0  0
   -2.3998  -25.5927   30.5398 S   0  0  0  0  0  0  0  0  0  0  0  0
   -3.3507  -24.0498   30.5650 C   0  0  0  0  0  0  0  0  0  0  0  0
   -0.7820  -19.4344   32.0210 H   0  0  0  0  0  0  0  0  0  0  0  0
    1.4471  -18.5394   31.4322 H   0  0  0  0  0  0  0  0  0  0  0  0
    2.0349  -19.0992   33.0023 H   0  0  0  0  0  0  0  0  0  0  0  0
   -0.3612  -17.2902   33.0749 H   0  0  0  0  0  0  0  0  0  0  0  0
    2.3524  -16.2812   31.9804 H   0  0  0  0  0  0  0  0  0  0  0  0
    0.7201  -15.9588   31.3521 H   0  0  0  0  0  0  0  0  0  0  0  0
    2.1561  -14.5524   33.4599 H   0  0  0  0  0  0  0  0  0  0  0  0
    0.4744  -14.2308   32.9641 H   0  0  0  0  0  0  0  0  0  0  0  0
    0.9534  -15.2947   35.3468 H   0  0  0  0  0  0  0  0  0  0  0  0
   -0.4312  -15.8757   34.4769 H   0  0  0  0  0  0  0  0  0  0  0  0
    2.4490  -18.3931   36.8026 H   0  0  0  0  0  0  0  0  0  0  0  0
    1.6969  -16.7907   37.0051 H   0  0  0  0  0  0  0  0  0  0  0  0
    4.4491  -17.0446   36.5407 H   0  0  0  0  0  0  0  0  0  0  0  0
   -3.7814  -21.2154   30.8105 H   0  0  0  0  0  0  0  0  0  0  0  0
   -0.5815  -24.2889   33.5565 H   0  0  0  0  0  0  0  0  0  0  0  0
    0.0434  -24.3984   31.9108 H   0  0  0  0  0  0  0  0  0  0  0  0
   -1.2063  -26.4478   32.4480 H   0  0  0  0  0  0  0  0  0  0  0  0
   -2.6329  -25.5330   32.9435 H   0  0  0  0  0  0  0  0  0  0  0  0
   -3.4710  -23.7530   29.5202 H   0  0  0  0  0  0  0  0  0  0  0  0
   -4.3297  -24.2593   30.9941 H   0  0  0  0  0  0  0  0  0  0  0  0
  1  2  2  0
  2  3  1  0
  3  4  1  0
  4  5  1  0
  5  6  1  0
  6  7  1  0
  7  8  1  0
  8  9  1  0
  9 10  1  0
 10 11  2  0
 10 12  1  0
 12 13  1  0
  2 14  1  0
 14 15  2  0
 15 16  1  0
 16 17  1  0
 17 18  2  0
 18 19  1  0
 19 20  1  0
 20 21  1  0
 21 22  1  0
  9  5  1  0
 18 14  1  0
 22 17  1  0
  3 23  1  0
  4 24  1  0
  4 25  1  0
  5 26  1  0
  6 27  1  0
  6 28  1  0
  7 29  1  0
  7 30  1  0
  8 31  1  0
  8 32  1  0
 12 33  1  0
 12 34  1  0
 13 35  1  0
 16 36  1  0
 19 37  1  0
 19 38  1  0
 20 39  1  0
 20 40  1  0
 22 41  1  0
 22 42  1  0
M  END
>  <Energy>  (828) 
138.27823299002222

>  <compound_id>  (828) 
47064

>  <target_id>  (828) 
1

>  <reference_id>  (828) 
123

>  <inspiration_ids>  (828) 
[53, 123]

>  <energy_score>  (828) 
-32.39093473693282

>  <distance_score>  (828) 
16.716873995440242

>  <path>  (828) 
/opt/xchem-fragalysis-2/maxwin/BulkDock/SCRATCH/511024/C47064-P123/C47064-P123.minimised.mol

>  <scratch_subdir>  (828) 
/opt/xchem-fragalysis-2/maxwin/BulkDock/SCRATCH/511024/C47064-P123

>  <fragmenstein_runtime>  (828) 
36.68227195739746

>  <fragmenstein_outcome>  (828) 
too moved

>  <fragmenstein_mode>  (828) 
expansion

>  <fragmenstein_error>  (828) 


$$$$
C47066-P53
     RDKit          3D

 42 44  0  0  0  0  0  0  0  0999 V2000
   -7.5936  -14.4997   31.8128 O   0  0  0  0  0  0  0  0  0  0  0  0
   -8.0564  -13.8936   32.7468 C   0  0  0  0  0  0  0  0  0  0  0  0
   -7.3172  -12.0568   32.9102 N   0  0  0  0  0  0  0  0  0  0  0  0
   -5.8087  -11.0182   31.8753 C   0  0  0  0  0  0  0  0  0  0  0  0
   -5.7885   -8.9403   30.9109 C   0  0  0  0  0  0  0  0  0  0  0  0
   -5.5056   -7.9494   29.1475 C   0  0  0  0  0  0  0  0  0  0  0  0
   -5.9411   -6.1202   29.4440 C   0  0  0  0  0  0  0  0  0  0  0  0
   -6.2290   -5.1506   30.8021 N   0  0  0  0  0  0  0  0  0  0  0  0
   -5.1987   -3.9460   31.5853 C   0  0  0  0  0  0  0  0  0  0  0  0
   -4.0109   -3.6301   31.3763 O   0  0  0  0  0  0  0  0  0  0  0  0
   -5.8673   -3.0109   32.6541 C   0  0  0  0  0  0  0  0  0  0  0  0
   -4.9873   -1.8730   32.8848 O   0  0  0  0  0  0  0  0  0  0  0  0
   -6.2868   -7.0088   31.5905 C   0  0  0  0  0  0  0  0  0  0  0  0
   -9.3886  -15.0908   33.7183 C   0  0  0  0  0  0  0  0  0  0  0  0
   -9.5113  -15.6367   35.1461 N   0  0  0  0  0  0  0  0  0  0  0  0
   -8.7702  -17.0135   35.3442 N   0  0  0  0  0  0  0  0  0  0  0  0
   -8.8172  -18.0328   34.1791 C   0  0  0  0  0  0  0  0  0  0  0  0
   -9.7221  -16.9084   33.8589 C   0  0  0  0  0  0  0  0  0  0  0  0
  -10.8953  -17.9616   34.6159 C   0  0  0  0  0  0  0  0  0  0  0  0
  -10.5891  -19.3157   33.4097 C   0  0  0  0  0  0  0  0  0  0  0  0
   -9.9505  -21.3048   32.2605 S   0  0  0  0  0  0  0  0  0  0  0  0
   -8.8220  -20.0350   34.0984 C   0  0  0  0  0  0  0  0  0  0  0  0
   -7.6790  -11.6532   33.7483 H   0  0  0  0  0  0  0  0  0  0  0  0
   -6.3004  -11.9319   31.4534 H   0  0  0  0  0  0  0  0  0  0  0  0
   -5.8997  -11.1278   30.7709 H   0  0  0  0  0  0  0  0  0  0  0  0
   -6.6183   -9.4517   30.1707 H   0  0  0  0  0  0  0  0  0  0  0  0
   -6.1505   -8.5452   28.4941 H   0  0  0  0  0  0  0  0  0  0  0  0
   -4.5131   -7.8181   28.7775 H   0  0  0  0  0  0  0  0  0  0  0  0
   -6.5099   -5.7864   28.5603 H   0  0  0  0  0  0  0  0  0  0  0  0
   -5.5992   -5.1571   29.0347 H   0  0  0  0  0  0  0  0  0  0  0  0
   -5.9928   -3.4908   33.6161 H   0  0  0  0  0  0  0  0  0  0  0  0
   -6.7979   -2.5930   32.2654 H   0  0  0  0  0  0  0  0  0  0  0  0
   -4.1413   -2.1188   32.4542 H   0  0  0  0  0  0  0  0  0  0  0  0
   -7.0890   -6.9831   32.3476 H   0  0  0  0  0  0  0  0  0  0  0  0
   -5.4527   -7.3378   32.1680 H   0  0  0  0  0  0  0  0  0  0  0  0
   -8.5364  -17.2611   36.2987 H   0  0  0  0  0  0  0  0  0  0  0  0
  -10.7005  -18.2999   35.6408 H   0  0  0  0  0  0  0  0  0  0  0  0
  -11.8884  -17.5060   34.4969 H   0  0  0  0  0  0  0  0  0  0  0  0
   -9.8770  -18.9887   32.7355 H   0  0  0  0  0  0  0  0  0  0  0  0
  -11.6920  -19.2678   33.1696 H   0  0  0  0  0  0  0  0  0  0  0  0
   -7.7544  -20.3271   34.0992 H   0  0  0  0  0  0  0  0  0  0  0  0
   -9.2469  -20.3075   35.0730 H   0  0  0  0  0  0  0  0  0  0  0  0
  1  2  2  0
  2  3  1  0
  3  4  1  0
  4  5  1  0
  5  6  1  0
  6  7  1  0
  7  8  1  0
  8  9  1  0
  9 10  2  0
  9 11  1  0
 11 12  1  0
  8 13  1  0
  2 14  1  0
 14 15  2  0
 15 16  1  0
 16 17  1  0
 17 18  2  0
 18 19  1  0
 19 20  1  0
 20 21  1  0
 21 22  1  0
 13  5  1  0
 18 14  1  0
 22 17  1  0
  3 23  1  0
  4 24  1  0
  4 25  1  0
  5 26  1  0
  6 27  1  0
  6 28  1  0
  7 29  1  0
  7 30  1  0
 11 31  1  0
 11 32  1  0
 12 33  1  0
 13 34  1  0
 13 35  1  0
 16 36  1  0
 19 37  1  0
 19 38  1  0
 20 39  1  0
 20 40  1  0
 22 41  1  0
 22 42  1  0
M  END
>  <Energy>  (829) 
1954.0914006303801

>  <compound_id>  (829) 
47066

>  <target_id>  (829) 
1

>  <reference_id>  (829) 
53

>  <inspiration_ids>  (829) 
[53, 123]

>  <energy_score>  (829) 
1859.3379205530848

>  <distance_score>  (829) 
9.349937789644734

>  <path>  (829) 
/opt/xchem-fragalysis-2/maxwin/BulkDock/SCRATCH/511024/C47066-P53/C47066-P53.minimised.mol

>  <scratch_subdir>  (829) 
/opt/xchem-fragalysis-2/maxwin/BulkDock/SCRATCH/511024/C47066-P53

>  <fragmenstein_runtime>  (829) 
24.417723894119263

>  <fragmenstein_outcome>  (829) 
too moved

>  <fragmenstein_mode>  (829) 
expansion

>  <fragmenstein_error>  (829) 


$$$$
C47066-P123
     RDKit          3D

 42 44  0  0  0  0  0  0  0  0999 V2000
   -7.1552  -17.5155   27.5223 O   0  0  0  0  0  0  0  0  0  0  0  0
   -8.1941  -17.0237   27.1684 C   0  0  0  0  0  0  0  0  0  0  0  0
   -8.5059  -15.4345   26.6437 N   0  0  0  0  0  0  0  0  0  0  0  0
   -7.4013  -13.9546   26.5778 C   0  0  0  0  0  0  0  0  0  0  0  0
   -6.4926  -12.6929   25.2942 C   0  0  0  0  0  0  0  0  0  0  0  0
   -5.7197  -13.0742   23.6761 C   0  0  0  0  0  0  0  0  0  0  0  0
   -6.5285  -12.3640   22.6195 C   0  0  0  0  0  0  0  0  0  0  0  0
   -6.5076  -10.9382   22.7008 N   0  0  0  0  0  0  0  0  0  0  0  0
   -7.4907   -9.9585   22.3142 C   0  0  0  0  0  0  0  0  0  0  0  0
   -8.6177  -10.0986   21.9079 O   0  0  0  0  0  0  0  0  0  0  0  0
   -6.8636   -8.4862   22.3612 C   0  0  0  0  0  0  0  0  0  0  0  0
   -7.1262   -7.3938   23.2075 O   0  0  0  0  0  0  0  0  0  0  0  0
   -6.6295  -11.2718   24.3013 C   0  0  0  0  0  0  0  0  0  0  0  0
   -9.3599  -18.0553   27.3750 C   0  0  0  0  0  0  0  0  0  0  0  0
  -10.8037  -17.4518   27.4500 N   0  0  0  0  0  0  0  0  0  0  0  0
  -11.3631  -18.3247   28.8735 N   0  0  0  0  0  0  0  0  0  0  0  0
  -10.6583  -20.0934   29.3771 C   0  0  0  0  0  0  0  0  0  0  0  0
   -9.2616  -19.8024   28.2484 C   0  0  0  0  0  0  0  0  0  0  0  0
  -10.1364  -21.5212   28.0121 C   0  0  0  0  0  0  0  0  0  0  0  0
  -11.4688  -22.2628   28.3134 C   0  0  0  0  0  0  0  0  0  0  0  0
  -11.7897  -22.6510   29.9847 S   0  0  0  0  0  0  0  0  0  0  0  0
  -11.0928  -21.1284   30.5343 C   0  0  0  0  0  0  0  0  0  0  0  0
   -9.5032  -15.3124   26.4945 H   0  0  0  0  0  0  0  0  0  0  0  0
   -8.0841  -13.3340   27.1676 H   0  0  0  0  0  0  0  0  0  0  0  0
   -6.7782  -14.0862   27.4403 H   0  0  0  0  0  0  0  0  0  0  0  0
   -6.1949  -12.1181   26.1548 H   0  0  0  0  0  0  0  0  0  0  0  0
   -4.6699  -12.7381   23.6418 H   0  0  0  0  0  0  0  0  0  0  0  0
   -5.7663  -14.1269   23.3404 H   0  0  0  0  0  0  0  0  0  0  0  0
   -6.0110  -12.5619   21.6678 H   0  0  0  0  0  0  0  0  0  0  0  0
   -7.5328  -12.7344   22.3788 H   0  0  0  0  0  0  0  0  0  0  0  0
   -5.7739   -8.5949   22.2941 H   0  0  0  0  0  0  0  0  0  0  0  0
   -7.1167   -8.1077   21.3598 H   0  0  0  0  0  0  0  0  0  0  0  0
   -6.5506   -7.4540   23.9863 H   0  0  0  0  0  0  0  0  0  0  0  0
   -5.5710  -11.1156   24.3355 H   0  0  0  0  0  0  0  0  0  0  0  0
   -7.0884  -10.5034   24.8842 H   0  0  0  0  0  0  0  0  0  0  0  0
  -12.3064  -18.0791   29.1609 H   0  0  0  0  0  0  0  0  0  0  0  0
   -9.3498  -22.2890   28.1368 H   0  0  0  0  0  0  0  0  0  0  0  0
  -10.6245  -21.2776   27.0596 H   0  0  0  0  0  0  0  0  0  0  0  0
  -11.4883  -23.1951   27.7348 H   0  0  0  0  0  0  0  0  0  0  0  0
  -12.3222  -21.6940   27.9726 H   0  0  0  0  0  0  0  0  0  0  0  0
  -11.8354  -20.8156   31.2467 H   0  0  0  0  0  0  0  0  0  0  0  0
  -10.2741  -21.2831   31.2227 H   0  0  0  0  0  0  0  0  0  0  0  0
  1  2  2  0
  2  3  1  0
  3  4  1  0
  4  5  1  0
  5  6  1  0
  6  7  1  0
  7  8  1  0
  8  9  1  0
  9 10  2  0
  9 11  1  0
 11 12  1  0
  8 13  1  0
  2 14  1  0
 14 15  2  0
 15 16  1  0
 16 17  1  0
 17 18  2  0
 18 19  1  0
 19 20  1  0
 20 21  1  0
 21 22  1  0
 13  5  1  0
 18 14  1  0
 22 17  1  0
  3 23  1  0
  4 24  1  0
  4 25  1  0
  5 26  1  0
  6 27  1  0
  6 28  1  0
  7 29  1  0
  7 30  1  0
 11 31  1  0
 11 32  1  0
 12 33  1  0
 13 34  1  0
 13 35  1  0
 16 36  1  0
 19 37  1  0
 19 38  1  0
 20 39  1  0
 20 40  1  0
 22 41  1  0
 22 42  1  0
M  END
>  <Energy>  (830) 
924.93613687711616

>  <compound_id>  (830) 
47066

>  <target_id>  (830) 
1

>  <reference_id>  (830) 
123

>  <inspiration_ids>  (830) 
[53, 123]

>  <energy_score>  (830) 
830.1826567998299

>  <distance_score>  (830) 
11.946503279506128

>  <path>  (830) 
/opt/xchem-fragalysis-2/maxwin/BulkDock/SCRATCH/511024/C47066-P123/C47066-P123.minimised.mol

>  <scratch_subdir>  (830) 
/opt/xchem-fragalysis-2/maxwin/BulkDock/SCRATCH/511024/C47066-P123

>  <fragmenstein_runtime>  (830) 
39.028172731399536

>  <fragmenstein_outcome>  (830) 
too moved

>  <fragmenstein_mode>  (830) 
expansion

>  <fragmenstein_error>  (830) 


$$$$
C36378-P53
     RDKit          3D

 34 35  0  0  0  0  0  0  0  0999 V2000
   -8.4092  -13.8885   29.0816 O   0  0  0  0  0  0  0  0  0  0  0  0
   -7.5672  -14.0915   28.3385 C   0  0  0  0  0  0  0  0  0  0  0  0
   -6.4885  -12.4325   28.0634 N   0  0  0  0  0  0  0  0  0  0  0  0
   -6.5355  -10.4943   28.9894 C   0  0  0  0  0  0  0  0  0  0  0  0
   -6.0500   -8.7578   27.8736 C   0  0  0  0  0  0  0  0  0  0  0  0
   -5.1080   -8.0168   26.6958 C   0  0  0  0  0  0  0  0  0  0  0  0
   -6.1686   -7.3254   25.9970 C   0  0  0  0  0  0  0  0  0  0  0  0
   -6.0400   -6.0264   26.4154 N   0  0  0  0  0  0  0  0  0  0  0  0
   -5.0659   -5.0849   26.1390 C   0  0  0  0  0  0  0  0  0  0  0  0
   -4.0314   -5.1844   25.5348 O   0  0  0  0  0  0  0  0  0  0  0  0
   -5.4994   -3.7480   26.6194 C   0  0  0  0  0  0  0  0  0  0  0  0
   -4.6574   -2.7911   25.9380 O   0  0  0  0  0  0  0  0  0  0  0  0
   -5.7019   -6.8768   28.0270 C   0  0  0  0  0  0  0  0  0  0  0  0
   -7.5902  -16.0576   27.9214 C   0  0  0  0  0  0  0  0  0  0  0  0
   -6.5012  -17.6320   28.4138 C   0  0  0  0  0  0  0  0  0  0  0  0
   -7.3129  -18.7502   28.3035 C   0  0  0  0  0  0  0  0  0  0  0  0
   -8.5783  -18.2366   28.0326 N   0  0  0  0  0  0  0  0  0  0  0  0
   -8.7134  -16.7957   27.5755 N   0  0  0  0  0  0  0  0  0  0  0  0
   -5.8362  -12.6076   27.3553 H   0  0  0  0  0  0  0  0  0  0  0  0
   -6.2706  -10.6689   30.0207 H   0  0  0  0  0  0  0  0  0  0  0  0
   -7.4826   -9.9617   29.2981 H   0  0  0  0  0  0  0  0  0  0  0  0
   -6.7100   -9.1147   27.0383 H   0  0  0  0  0  0  0  0  0  0  0  0
   -4.3273   -8.0082   25.9230 H   0  0  0  0  0  0  0  0  0  0  0  0
   -4.2045   -7.5354   27.1517 H   0  0  0  0  0  0  0  0  0  0  0  0
   -5.8754   -7.2851   24.9326 H   0  0  0  0  0  0  0  0  0  0  0  0
   -7.1649   -7.7055   25.8324 H   0  0  0  0  0  0  0  0  0  0  0  0
   -5.3841   -3.6872   27.7051 H   0  0  0  0  0  0  0  0  0  0  0  0
   -6.5360   -3.5618   26.3209 H   0  0  0  0  0  0  0  0  0  0  0  0
   -4.0794   -3.3290   25.3482 H   0  0  0  0  0  0  0  0  0  0  0  0
   -4.6966   -6.5805   28.4037 H   0  0  0  0  0  0  0  0  0  0  0  0
   -6.2616   -6.3369   28.8010 H   0  0  0  0  0  0  0  0  0  0  0  0
   -5.5463  -17.5881   28.9584 H   0  0  0  0  0  0  0  0  0  0  0  0
   -7.0970  -19.7816   28.1749 H   0  0  0  0  0  0  0  0  0  0  0  0
   -9.3307  -18.8591   27.7613 H   0  0  0  0  0  0  0  0  0  0  0  0
  1  2  2  0
  2  3  1  0
  3  4  1  0
  4  5  1  0
  5  6  1  0
  6  7  1  0
  7  8  1  0
  8  9  1  0
  9 10  2  0
  9 11  1  0
 11 12  1  0
  8 13  1  0
  2 14  1  0
 14 15  1  0
 15 16  2  0
 16 17  1  0
 17 18  1  0
 13  5  1  0
 18 14  2  0
  3 19  1  0
  4 20  1  0
  4 21  1  0
  5 22  1  0
  6 23  1  0
  6 24  1  0
  7 25  1  0
  7 26  1  0
 11 27  1  0
 11 28  1  0
 12 29  1  0
 13 30  1  0
 13 31  1  0
 15 32  1  0
 16 33  1  0
 17 34  1  0
M  END
>  <Energy>  (831) 
972.29483917715129

>  <compound_id>  (831) 
36378

>  <target_id>  (831) 
1

>  <reference_id>  (831) 
53

>  <inspiration_ids>  (831) 
[53, 123]

>  <energy_score>  (831) 
881.6496260947677

>  <distance_score>  (831) 
11.122751251212415

>  <path>  (831) 
/opt/xchem-fragalysis-2/maxwin/BulkDock/SCRATCH/511024/C36378-P53/C36378-P53.minimised.mol

>  <scratch_subdir>  (831) 
/opt/xchem-fragalysis-2/maxwin/BulkDock/SCRATCH/511024/C36378-P53

>  <fragmenstein_runtime>  (831) 
21.757864713668823

>  <fragmenstein_outcome>  (831) 
too moved

>  <fragmenstein_mode>  (831) 
expansion

>  <fragmenstein_error>  (831) 


$$$$
C36378-P123
     RDKit          3D

 34 35  0  0  0  0  0  0  0  0999 V2000
   -3.8346  -11.3911   37.2768 O   0  0  0  0  0  0  0  0  0  0  0  0
   -3.1435  -11.8824   36.4315 C   0  0  0  0  0  0  0  0  0  0  0  0
   -2.1073  -11.3014   35.6065 N   0  0  0  0  0  0  0  0  0  0  0  0
   -1.5120   -9.9575   35.6120 C   0  0  0  0  0  0  0  0  0  0  0  0
   -1.7535   -9.0726   34.3531 C   0  0  0  0  0  0  0  0  0  0  0  0
   -0.9865   -9.5101   33.1437 C   0  0  0  0  0  0  0  0  0  0  0  0
   -0.0324   -8.3570   33.0260 C   0  0  0  0  0  0  0  0  0  0  0  0
   -0.7572   -7.0640   33.1064 N   0  0  0  0  0  0  0  0  0  0  0  0
   -0.2685   -5.7258   33.2622 C   0  0  0  0  0  0  0  0  0  0  0  0
    0.8492   -5.3176   33.4568 O   0  0  0  0  0  0  0  0  0  0  0  0
   -1.3961   -4.6921   33.0326 C   0  0  0  0  0  0  0  0  0  0  0  0
   -0.9282   -3.5147   32.3547 O   0  0  0  0  0  0  0  0  0  0  0  0
   -1.1736   -7.6453   34.4684 C   0  0  0  0  0  0  0  0  0  0  0  0
   -3.3683  -13.3542   36.1259 C   0  0  0  0  0  0  0  0  0  0  0  0
   -4.4610  -14.1675   36.5844 C   0  0  0  0  0  0  0  0  0  0  0  0
   -4.3253  -15.3871   35.9656 C   0  0  0  0  0  0  0  0  0  0  0  0
   -3.1999  -15.2799   35.2081 N   0  0  0  0  0  0  0  0  0  0  0  0
   -2.5626  -14.0910   35.3300 N   0  0  0  0  0  0  0  0  0  0  0  0
   -1.6715  -12.0395   35.0520 H   0  0  0  0  0  0  0  0  0  0  0  0
   -1.9172   -9.4379   36.4876 H   0  0  0  0  0  0  0  0  0  0  0  0
   -0.4379  -10.0957   35.7781 H   0  0  0  0  0  0  0  0  0  0  0  0
   -2.8253   -9.0253   34.1319 H   0  0  0  0  0  0  0  0  0  0  0  0
   -0.4634  -10.4637   33.2532 H   0  0  0  0  0  0  0  0  0  0  0  0
   -1.6401   -9.5597   32.2659 H   0  0  0  0  0  0  0  0  0  0  0  0
    0.8390   -8.3965   33.7016 H   0  0  0  0  0  0  0  0  0  0  0  0
    0.4171   -8.3696   32.0240 H   0  0  0  0  0  0  0  0  0  0  0  0
   -1.7943   -4.3931   34.0066 H   0  0  0  0  0  0  0  0  0  0  0  0
   -2.2005   -5.1260   32.4320 H   0  0  0  0  0  0  0  0  0  0  0  0
   -0.0077   -3.3933   32.6656 H   0  0  0  0  0  0  0  0  0  0  0  0
   -1.9588   -6.9800   34.8546 H   0  0  0  0  0  0  0  0  0  0  0  0
   -0.3541   -7.5519   35.2023 H   0  0  0  0  0  0  0  0  0  0  0  0
   -5.2568  -13.8556   37.2463 H   0  0  0  0  0  0  0  0  0  0  0  0
   -4.9240  -16.2865   35.9797 H   0  0  0  0  0  0  0  0  0  0  0  0
   -2.8013  -15.9731   34.5839 H   0  0  0  0  0  0  0  0  0  0  0  0
  1  2  2  0
  2  3  1  0
  3  4  1  0
  4  5  1  0
  5  6  1  0
  6  7  1  0
  7  8  1  0
  8  9  1  0
  9 10  2  0
  9 11  1  0
 11 12  1  0
  8 13  1  0
  2 14  1  0
 14 15  1  0
 15 16  2  0
 16 17  1  0
 17 18  1  0
 13  5  1  0
 18 14  2  0
  3 19  1  0
  4 20  1  0
  4 21  1  0
  5 22  1  0
  6 23  1  0
  6 24  1  0
  7 25  1  0
  7 26  1  0
 11 27  1  0
 11 28  1  0
 12 29  1  0
 13 30  1  0
 13 31  1  0
 15 32  1  0
 16 33  1  0
 17 34  1  0
M  END
>  <Energy>  (832) 
111.28922379917194

>  <compound_id>  (832) 
36378

>  <target_id>  (832) 
1

>  <reference_id>  (832) 
123

>  <inspiration_ids>  (832) 
[53, 123]

>  <energy_score>  (832) 
20.644010716798675

>  <distance_score>  (832) 
13.079606763895601

>  <path>  (832) 
/opt/xchem-fragalysis-2/maxwin/BulkDock/SCRATCH/511024/C36378-P123/C36378-P123.minimised.mol

>  <scratch_subdir>  (832) 
/opt/xchem-fragalysis-2/maxwin/BulkDock/SCRATCH/511024/C36378-P123

>  <fragmenstein_runtime>  (832) 
18.368337392807007

>  <fragmenstein_outcome>  (832) 
too moved

>  <fragmenstein_mode>  (832) 
expansion

>  <fragmenstein_error>  (832) 


$$$$
C47067-P53
     RDKit          3D

 41 43  0  0  0  0  0  0  0  0999 V2000
   -4.1444  -11.9613   28.8626 O   0  0  0  0  0  0  0  0  0  0  0  0
   -5.2141  -12.1006   29.4261 C   0  0  0  0  0  0  0  0  0  0  0  0
   -5.7541  -11.0320   30.8087 N   0  0  0  0  0  0  0  0  0  0  0  0
   -4.9045   -9.3848   31.6248 C   0  0  0  0  0  0  0  0  0  0  0  0
   -3.1753   -8.5484   31.9417 C   0  0  0  0  0  0  0  0  0  0  0  0
   -3.2246   -7.8883   33.3040 C   0  0  0  0  0  0  0  0  0  0  0  0
   -1.8861   -7.1954   33.2850 C   0  0  0  0  0  0  0  0  0  0  0  0
   -1.7524   -6.3016   32.0910 N   0  0  0  0  0  0  0  0  0  0  0  0
   -0.5391   -5.5463   32.1716 C   0  0  0  0  0  0  0  0  0  0  0  0
    0.5629   -5.7913   31.7574 O   0  0  0  0  0  0  0  0  0  0  0  0
   -0.8448   -4.1851   32.8293 C   0  0  0  0  0  0  0  0  0  0  0  0
   -1.8240   -3.4399   32.1145 O   0  0  0  0  0  0  0  0  0  0  0  0
   -2.0651   -7.5876   31.3681 C   0  0  0  0  0  0  0  0  0  0  0  0
   -6.4288  -13.4444   28.6744 C   0  0  0  0  0  0  0  0  0  0  0  0
   -6.4405  -13.0217   27.3880 N   0  0  0  0  0  0  0  0  0  0  0  0
   -7.6028  -12.9991   26.9569 N   0  0  0  0  0  0  0  0  0  0  0  0
   -8.5689  -13.6295   27.6278 C   0  0  0  0  0  0  0  0  0  0  0  0
   -7.7696  -14.3068   28.3709 C   0  0  0  0  0  0  0  0  0  0  0  0
   -8.4058  -15.8551   27.5342 C   0  0  0  0  0  0  0  0  0  0  0  0
   -9.8587  -15.7022   26.9875 C   0  0  0  0  0  0  0  0  0  0  0  0
   -9.7457  -14.2564   27.2163 C   0  0  0  0  0  0  0  0  0  0  0  0
   -6.6368  -11.3958   31.1788 H   0  0  0  0  0  0  0  0  0  0  0  0
   -5.2005   -9.5049   32.7314 H   0  0  0  0  0  0  0  0  0  0  0  0
   -5.3294   -8.6046   31.0400 H   0  0  0  0  0  0  0  0  0  0  0  0
   -2.4329   -9.3585   31.9648 H   0  0  0  0  0  0  0  0  0  0  0  0
   -4.0544   -7.1826   33.3927 H   0  0  0  0  0  0  0  0  0  0  0  0
   -3.2802   -8.5840   34.1446 H   0  0  0  0  0  0  0  0  0  0  0  0
   -1.8309   -6.5473   34.1702 H   0  0  0  0  0  0  0  0  0  0  0  0
   -1.0197   -7.8719   33.3967 H   0  0  0  0  0  0  0  0  0  0  0  0
    0.0761   -3.5952   32.8821 H   0  0  0  0  0  0  0  0  0  0  0  0
   -1.2009   -4.3422   33.8513 H   0  0  0  0  0  0  0  0  0  0  0  0
   -1.4184   -3.2169   31.2556 H   0  0  0  0  0  0  0  0  0  0  0  0
   -2.2326   -7.2378   30.3458 H   0  0  0  0  0  0  0  0  0  0  0  0
   -1.1034   -8.1258   31.2451 H   0  0  0  0  0  0  0  0  0  0  0  0
   -7.6977  -12.0957   26.5042 H   0  0  0  0  0  0  0  0  0  0  0  0
   -8.3434  -16.7760   28.0620 H   0  0  0  0  0  0  0  0  0  0  0  0
   -8.0143  -15.8577   26.5293 H   0  0  0  0  0  0  0  0  0  0  0  0
  -10.7986  -16.0855   27.3838 H   0  0  0  0  0  0  0  0  0  0  0  0
   -9.9741  -16.0327   25.9684 H   0  0  0  0  0  0  0  0  0  0  0  0
  -10.6881  -13.7060   27.2801 H   0  0  0  0  0  0  0  0  0  0  0  0
   -9.0515  -14.3571   26.3489 H   0  0  0  0  0  0  0  0  0  0  0  0
  1  2  2  0
  2  3  1  0
  3  4  1  0
  4  5  1  0
  5  6  1  0
  6  7  1  0
  7  8  1  0
  8  9  1  0
  9 10  2  0
  9 11  1  0
 11 12  1  0
  8 13  1  0
  2 14  1  0
 14 15  2  0
 15 16  1  0
 16 17  1  0
 17 18  2  0
 18 19  1  0
 19 20  1  0
 20 21  1  0
 13  5  1  0
 18 14  1  0
 21 17  1  0
  3 22  1  0
  4 23  1  0
  4 24  1  0
  5 25  1  0
  6 26  1  0
  6 27  1  0
  7 28  1  0
  7 29  1  0
 11 30  1  0
 11 31  1  0
 12 32  1  0
 13 33  1  0
 13 34  1  0
 16 35  1  0
 19 36  1  0
 19 37  1  0
 20 38  1  0
 20 39  1  0
 21 40  1  0
 21 41  1  0
M  END
>  <Energy>  (833) 
723.81489744945827

>  <compound_id>  (833) 
47067

>  <target_id>  (833) 
1

>  <reference_id>  (833) 
53

>  <inspiration_ids>  (833) 
[53, 123]

>  <energy_score>  (833) 
617.5073277459084

>  <distance_score>  (833) 
11.206736174888645

>  <path>  (833) 
/opt/xchem-fragalysis-2/maxwin/BulkDock/SCRATCH/511024/C47067-P53/C47067-P53.minimised.mol

>  <scratch_subdir>  (833) 
/opt/xchem-fragalysis-2/maxwin/BulkDock/SCRATCH/511024/C47067-P53

>  <fragmenstein_runtime>  (833) 
26.248460292816162

>  <fragmenstein_outcome>  (833) 
too moved

>  <fragmenstein_mode>  (833) 
expansion

>  <fragmenstein_error>  (833) 


$$$$
C47067-P123
     RDKit          3D

 41 43  0  0  0  0  0  0  0  0999 V2000
   -7.3018  -14.8571   24.8473 O   0  0  0  0  0  0  0  0  0  0  0  0
   -7.7834  -14.5614   25.9175 C   0  0  0  0  0  0  0  0  0  0  0  0
   -7.5562  -13.0283   26.8032 N   0  0  0  0  0  0  0  0  0  0  0  0
   -6.6413  -11.3601   26.2846 C   0  0  0  0  0  0  0  0  0  0  0  0
   -6.6194   -9.3936   27.2451 C   0  0  0  0  0  0  0  0  0  0  0  0
   -6.6756   -9.2206   28.8439 C   0  0  0  0  0  0  0  0  0  0  0  0
   -5.6109   -7.8862   29.3053 C   0  0  0  0  0  0  0  0  0  0  0  0
   -6.1669   -6.5980   28.9179 N   0  0  0  0  0  0  0  0  0  0  0  0
   -5.8001   -4.8690   29.4521 C   0  0  0  0  0  0  0  0  0  0  0  0
   -4.9970   -4.0319   29.0063 O   0  0  0  0  0  0  0  0  0  0  0  0
   -6.5258   -4.2839   30.8232 C   0  0  0  0  0  0  0  0  0  0  0  0
   -7.5303   -3.2919   30.7751 O   0  0  0  0  0  0  0  0  0  0  0  0
   -5.3674   -7.7411   27.5993 C   0  0  0  0  0  0  0  0  0  0  0  0
   -8.8048  -15.6975   26.3725 C   0  0  0  0  0  0  0  0  0  0  0  0
   -9.9642  -15.3446   26.9484 N   0  0  0  0  0  0  0  0  0  0  0  0
  -11.0006  -16.0904   26.5417 N   0  0  0  0  0  0  0  0  0  0  0  0
  -10.7175  -16.8146   25.4353 C   0  0  0  0  0  0  0  0  0  0  0  0
   -9.3478  -16.6547   25.2681 C   0  0  0  0  0  0  0  0  0  0  0  0
   -8.9709  -17.0457   23.8083 C   0  0  0  0  0  0  0  0  0  0  0  0
  -10.3376  -17.2784   23.0706 C   0  0  0  0  0  0  0  0  0  0  0  0
  -11.5100  -17.1180   24.1108 C   0  0  0  0  0  0  0  0  0  0  0  0
   -7.9992  -13.0906   27.6878 H   0  0  0  0  0  0  0  0  0  0  0  0
   -6.7214  -11.3055   25.2038 H   0  0  0  0  0  0  0  0  0  0  0  0
   -5.8533  -11.9270   26.8166 H   0  0  0  0  0  0  0  0  0  0  0  0
   -5.7547   -9.7178   27.0034 H   0  0  0  0  0  0  0  0  0  0  0  0
   -6.5277  -10.0019   29.5891 H   0  0  0  0  0  0  0  0  0  0  0  0
   -7.7551   -9.1710   28.9460 H   0  0  0  0  0  0  0  0  0  0  0  0
   -6.2950   -6.9001   29.6228 H   0  0  0  0  0  0  0  0  0  0  0  0
   -4.5199   -7.8550   29.2933 H   0  0  0  0  0  0  0  0  0  0  0  0
   -6.7718   -5.0886   31.5246 H   0  0  0  0  0  0  0  0  0  0  0  0
   -5.7008   -3.7730   31.3416 H   0  0  0  0  0  0  0  0  0  0  0  0
   -7.5733   -2.9731   29.8575 H   0  0  0  0  0  0  0  0  0  0  0  0
   -5.7783   -6.2908   27.3991 H   0  0  0  0  0  0  0  0  0  0  0  0
   -4.2819   -7.7424   27.5250 H   0  0  0  0  0  0  0  0  0  0  0  0
  -11.9043  -15.8091   26.9083 H   0  0  0  0  0  0  0  0  0  0  0  0
   -8.3923  -17.9621   23.6936 H   0  0  0  0  0  0  0  0  0  0  0  0
   -8.3701  -16.3051   23.2916 H   0  0  0  0  0  0  0  0  0  0  0  0
  -10.4593  -16.5615   22.2499 H   0  0  0  0  0  0  0  0  0  0  0  0
  -10.3571  -18.2779   22.6195 H   0  0  0  0  0  0  0  0  0  0  0  0
  -12.1849  -16.2935   23.8460 H   0  0  0  0  0  0  0  0  0  0  0  0
  -12.1163  -18.0040   24.0001 H   0  0  0  0  0  0  0  0  0  0  0  0
  1  2  2  0
  2  3  1  0
  3  4  1  0
  4  5  1  0
  5  6  1  0
  6  7  1  0
  7  8  1  0
  8  9  1  0
  9 10  2  0
  9 11  1  0
 11 12  1  0
  8 13  1  0
  2 14  1  0
 14 15  2  0
 15 16  1  0
 16 17  1  0
 17 18  2  0
 18 19  1  0
 19 20  1  0
 20 21  1  0
 13  5  1  0
 18 14  1  0
 21 17  1  0
  3 22  1  0
  4 23  1  0
  4 24  1  0
  5 25  1  0
  6 26  1  0
  6 27  1  0
  7 28  1  0
  7 29  1  0
 11 30  1  0
 11 31  1  0
 12 32  1  0
 13 33  1  0
 13 34  1  0
 16 35  1  0
 19 36  1  0
 19 37  1  0
 20 38  1  0
 20 39  1  0
 21 40  1  0
 21 41  1  0
M  END
>  <Energy>  (834) 
1090.9128198447831

>  <compound_id>  (834) 
47067

>  <target_id>  (834) 
1

>  <reference_id>  (834) 
123

>  <inspiration_ids>  (834) 
[53, 123]

>  <energy_score>  (834) 
984.6052501412399

>  <distance_score>  (834) 
10.49598712619278

>  <path>  (834) 
/opt/xchem-fragalysis-2/maxwin/BulkDock/SCRATCH/511024/C47067-P123/C47067-P123.minimised.mol

>  <scratch_subdir>  (834) 
/opt/xchem-fragalysis-2/maxwin/BulkDock/SCRATCH/511024/C47067-P123

>  <fragmenstein_runtime>  (834) 
24.92585301399231

>  <fragmenstein_outcome>  (834) 
too moved

>  <fragmenstein_mode>  (834) 
expansion

>  <fragmenstein_error>  (834) 


$$$$
C14124-P53
     RDKit          3D

 40 42  0  0  0  0  0  0  0  0999 V2000
   -5.4560   -9.6693   33.0776 O   0  0  0  0  0  0  0  0  0  0  0  0
   -5.7070  -10.5302   33.8487 C   0  0  0  0  0  0  0  0  0  0  0  0
   -4.7367  -10.2455   35.4095 C   0  0  0  0  0  0  0  0  0  0  0  0
   -4.6524   -9.1727   36.4682 O   0  0  0  0  0  0  0  0  0  0  0  0
   -4.0062   -7.9053   36.1325 C   0  0  0  0  0  0  0  0  0  0  0  0
   -3.9536   -6.9362   37.3092 C   0  0  0  0  0  0  0  0  0  0  0  0
   -3.0532   -5.8068   36.8065 C   0  0  0  0  0  0  0  0  0  0  0  0
   -2.0318   -6.4858   35.8963 C   0  0  0  0  0  0  0  0  0  0  0  0
   -2.5433   -7.9163   35.6844 C   0  0  0  0  0  0  0  0  0  0  0  0
   -6.9473  -11.7454   33.5473 N   0  0  0  0  0  0  0  0  0  0  0  0
   -6.3810  -12.8564   32.8880 C   0  0  0  0  0  0  0  0  0  0  0  0
   -7.0610  -14.0620   31.7809 C   0  0  0  0  0  0  0  0  0  0  0  0
   -8.3886  -13.7973   32.8431 C   0  0  0  0  0  0  0  0  0  0  0  0
   -9.6085  -15.1038   33.4927 C   0  0  0  0  0  0  0  0  0  0  0  0
  -11.0003  -15.1672   33.7233 C   0  0  0  0  0  0  0  0  0  0  0  0
  -11.3954  -16.1840   34.7172 C   0  0  0  0  0  0  0  0  0  0  0  0
  -10.3857  -17.0353   34.8740 N   0  0  0  0  0  0  0  0  0  0  0  0
   -9.3930  -16.4345   34.1609 N   0  0  0  0  0  0  0  0  0  0  0  0
   -7.8591  -11.8941   32.5431 C   0  0  0  0  0  0  0  0  0  0  0  0
   -3.8102  -10.7329   35.6092 H   0  0  0  0  0  0  0  0  0  0  0  0
   -4.1423   -9.5777   34.7810 H   0  0  0  0  0  0  0  0  0  0  0  0
   -4.5881   -7.3907   35.3837 H   0  0  0  0  0  0  0  0  0  0  0  0
   -3.5189   -7.4262   38.1889 H   0  0  0  0  0  0  0  0  0  0  0  0
   -4.9479   -6.5794   37.5961 H   0  0  0  0  0  0  0  0  0  0  0  0
   -3.6421   -5.0768   36.2407 H   0  0  0  0  0  0  0  0  0  0  0  0
   -2.5754   -5.2723   37.6333 H   0  0  0  0  0  0  0  0  0  0  0  0
   -1.0412   -6.5074   36.3637 H   0  0  0  0  0  0  0  0  0  0  0  0
   -1.9278   -5.9466   34.9496 H   0  0  0  0  0  0  0  0  0  0  0  0
   -1.9696   -8.6262   36.2912 H   0  0  0  0  0  0  0  0  0  0  0  0
   -2.4336   -8.2120   34.6385 H   0  0  0  0  0  0  0  0  0  0  0  0
   -5.5603  -13.2650   33.4719 H   0  0  0  0  0  0  0  0  0  0  0  0
   -5.9046  -12.2249   32.1856 H   0  0  0  0  0  0  0  0  0  0  0  0
   -6.4020  -14.9401   31.7503 H   0  0  0  0  0  0  0  0  0  0  0  0
   -6.8602  -13.7201   30.7743 H   0  0  0  0  0  0  0  0  0  0  0  0
   -9.3296  -13.3343   32.6679 H   0  0  0  0  0  0  0  0  0  0  0  0
  -11.7701  -14.7713   33.0705 H   0  0  0  0  0  0  0  0  0  0  0  0
  -12.3774  -16.4233   35.0984 H   0  0  0  0  0  0  0  0  0  0  0  0
   -8.5882  -17.0212   34.1050 H   0  0  0  0  0  0  0  0  0  0  0  0
   -8.7845  -11.3573   32.3892 H   0  0  0  0  0  0  0  0  0  0  0  0
   -7.3700  -11.6894   31.6198 H   0  0  0  0  0  0  0  0  0  0  0  0
  1  2  2  0
  2  3  1  0
  3  4  1  0
  4  5  1  0
  5  6  1  0
  6  7  1  0
  7  8  1  0
  8  9  1  0
  2 10  1  0
 10 11  1  0
 11 12  1  0
 12 13  1  0
 13 14  1  0
 14 15  2  0
 15 16  1  0
 16 17  2  0
 17 18  1  0
 13 19  1  0
  9  5  1  0
 19 10  1  0
 18 14  1  0
  3 20  1  0
  3 21  1  0
  5 22  1  0
  6 23  1  0
  6 24  1  0
  7 25  1  0
  7 26  1  0
  8 27  1  0
  8 28  1  0
  9 29  1  0
  9 30  1  0
 11 31  1  0
 11 32  1  0
 12 33  1  0
 12 34  1  0
 13 35  1  0
 15 36  1  0
 16 37  1  0
 18 38  1  0
 19 39  1  0
 19 40  1  0
M  END
>  <Energy>  (835) 
548.366035889199

>  <compound_id>  (835) 
14124

>  <target_id>  (835) 
1

>  <reference_id>  (835) 
53

>  <inspiration_ids>  (835) 
[53, 123]

>  <energy_score>  (835) 
455.6145648051822

>  <distance_score>  (835) 
12.578276800841495

>  <path>  (835) 
/opt/xchem-fragalysis-2/maxwin/BulkDock/SCRATCH/511024/C14124-P53/C14124-P53.minimised.mol

>  <scratch_subdir>  (835) 
/opt/xchem-fragalysis-2/maxwin/BulkDock/SCRATCH/511024/C14124-P53

>  <fragmenstein_runtime>  (835) 
21.948822736740112

>  <fragmenstein_outcome>  (835) 
too moved

>  <fragmenstein_mode>  (835) 
expansion

>  <fragmenstein_error>  (835) 


$$$$
C14124-P123
     RDKit          3D

 40 42  0  0  0  0  0  0  0  0999 V2000
   -2.8416  -13.5420   29.7483 O   0  0  0  0  0  0  0  0  0  0  0  0
   -3.3635  -12.4759   29.9132 C   0  0  0  0  0  0  0  0  0  0  0  0
   -2.2185  -10.9706   29.6845 C   0  0  0  0  0  0  0  0  0  0  0  0
   -0.9473  -10.3382   29.1863 O   0  0  0  0  0  0  0  0  0  0  0  0
   -0.4111   -8.9884   29.1825 C   0  0  0  0  0  0  0  0  0  0  0  0
    1.1139   -8.9920   29.0406 C   0  0  0  0  0  0  0  0  0  0  0  0
    1.4814   -7.5210   29.2107 C   0  0  0  0  0  0  0  0  0  0  0  0
    0.6091   -7.0678   30.3700 C   0  0  0  0  0  0  0  0  0  0  0  0
   -0.6469   -7.9403   30.2999 C   0  0  0  0  0  0  0  0  0  0  0  0
   -4.6550  -12.1575   30.3816 N   0  0  0  0  0  0  0  0  0  0  0  0
   -5.5105  -12.0942   29.3542 C   0  0  0  0  0  0  0  0  0  0  0  0
   -6.3426  -13.9097   29.6693 C   0  0  0  0  0  0  0  0  0  0  0  0
   -6.9771  -14.0416   31.0782 C   0  0  0  0  0  0  0  0  0  0  0  0
   -7.6826  -15.1179   32.5863 C   0  0  0  0  0  0  0  0  0  0  0  0
   -6.9154  -16.1572   33.3172 C   0  0  0  0  0  0  0  0  0  0  0  0
   -7.7400  -16.9657   34.0981 C   0  0  0  0  0  0  0  0  0  0  0  0
   -8.9979  -16.6144   33.9364 N   0  0  0  0  0  0  0  0  0  0  0  0
   -8.9573  -15.6418   32.9600 N   0  0  0  0  0  0  0  0  0  0  0  0
   -5.7317  -12.9785   30.9197 C   0  0  0  0  0  0  0  0  0  0  0  0
   -2.6280  -10.4218   30.5796 H   0  0  0  0  0  0  0  0  0  0  0  0
   -1.6383  -11.0810   30.6102 H   0  0  0  0  0  0  0  0  0  0  0  0
   -0.7144   -8.5196   28.2487 H   0  0  0  0  0  0  0  0  0  0  0  0
    1.5777   -9.6136   29.8137 H   0  0  0  0  0  0  0  0  0  0  0  0
    1.4336   -9.3901   28.0720 H   0  0  0  0  0  0  0  0  0  0  0  0
    2.5469   -7.3806   29.4133 H   0  0  0  0  0  0  0  0  0  0  0  0
    1.2289   -6.9592   28.3035 H   0  0  0  0  0  0  0  0  0  0  0  0
    1.1249   -7.2476   31.3203 H   0  0  0  0  0  0  0  0  0  0  0  0
    0.3784   -5.9994   30.3156 H   0  0  0  0  0  0  0  0  0  0  0  0
   -1.4779   -7.2772   30.0398 H   0  0  0  0  0  0  0  0  0  0  0  0
   -0.8930   -8.3895   31.2647 H   0  0  0  0  0  0  0  0  0  0  0  0
   -6.1392  -12.3171   28.5141 H   0  0  0  0  0  0  0  0  0  0  0  0
   -4.7417  -12.1144   28.5688 H   0  0  0  0  0  0  0  0  0  0  0  0
   -5.8021  -14.8388   29.7622 H   0  0  0  0  0  0  0  0  0  0  0  0
   -7.0538  -14.0116   28.8173 H   0  0  0  0  0  0  0  0  0  0  0  0
   -7.9581  -14.0880   30.6880 H   0  0  0  0  0  0  0  0  0  0  0  0
   -5.8740  -16.3527   33.1262 H   0  0  0  0  0  0  0  0  0  0  0  0
   -7.4901  -17.8127   34.7218 H   0  0  0  0  0  0  0  0  0  0  0  0
   -9.8270  -15.1560   32.8563 H   0  0  0  0  0  0  0  0  0  0  0  0
   -5.6955  -11.9603   31.4680 H   0  0  0  0  0  0  0  0  0  0  0  0
   -6.5315  -12.5227   31.6292 H   0  0  0  0  0  0  0  0  0  0  0  0
  1  2  2  0
  2  3  1  0
  3  4  1  0
  4  5  1  0
  5  6  1  0
  6  7  1  0
  7  8  1  0
  8  9  1  0
  2 10  1  0
 10 11  1  0
 11 12  1  0
 12 13  1  0
 13 14  1  0
 14 15  2  0
 15 16  1  0
 16 17  2  0
 17 18  1  0
 13 19  1  0
  9  5  1  0
 19 10  1  0
 18 14  1  0
  3 20  1  0
  3 21  1  0
  5 22  1  0
  6 23  1  0
  6 24  1  0
  7 25  1  0
  7 26  1  0
  8 27  1  0
  8 28  1  0
  9 29  1  0
  9 30  1  0
 11 31  1  0
 11 32  1  0
 12 33  1  0
 12 34  1  0
 13 35  1  0
 15 36  1  0
 16 37  1  0
 18 38  1  0
 19 39  1  0
 19 40  1  0
M  END
>  <Energy>  (836) 
713.91080112139184

>  <compound_id>  (836) 
14124

>  <target_id>  (836) 
1

>  <reference_id>  (836) 
123

>  <inspiration_ids>  (836) 
[53, 123]

>  <energy_score>  (836) 
621.1593300373916

>  <distance_score>  (836) 
11.475832920129164

>  <path>  (836) 
/opt/xchem-fragalysis-2/maxwin/BulkDock/SCRATCH/511024/C14124-P123/C14124-P123.minimised.mol

>  <scratch_subdir>  (836) 
/opt/xchem-fragalysis-2/maxwin/BulkDock/SCRATCH/511024/C14124-P123

>  <fragmenstein_runtime>  (836) 
18.02744460105896

>  <fragmenstein_outcome>  (836) 
too moved

>  <fragmenstein_mode>  (836) 
expansion

>  <fragmenstein_error>  (836) 


$$$$
C47068-P53
     RDKit          3D

 42 44  0  0  0  0  0  0  0  0999 V2000
   -6.4496   -9.0940   27.3706 C   0  0  0  0  0  0  0  0  0  0  0  0
   -6.6269   -9.6862   28.6629 N   0  0  0  0  0  0  0  0  0  0  0  0
   -5.8926  -11.5205   28.6873 C   0  0  0  0  0  0  0  0  0  0  0  0
   -4.7595  -11.9028   28.9904 O   0  0  0  0  0  0  0  0  0  0  0  0
   -6.9793  -12.9680   27.9619 C   0  0  0  0  0  0  0  0  0  0  0  0
   -6.7818  -14.1088   28.5475 N   0  0  0  0  0  0  0  0  0  0  0  0
   -8.0494  -14.4405   28.2975 N   0  0  0  0  0  0  0  0  0  0  0  0
   -8.4828  -14.7637   27.0704 C   0  0  0  0  0  0  0  0  0  0  0  0
   -8.6879  -13.4434   27.2702 C   0  0  0  0  0  0  0  0  0  0  0  0
  -10.4829  -13.2201   27.1838 C   0  0  0  0  0  0  0  0  0  0  0  0
  -11.4020  -14.4612   27.2861 C   0  0  0  0  0  0  0  0  0  0  0  0
  -10.8730  -16.0393   26.6269 S   0  0  0  0  0  0  0  0  0  0  0  0
   -9.0853  -15.9942   26.5984 C   0  0  0  0  0  0  0  0  0  0  0  0
   -5.6791   -8.0097   28.9863 C   0  0  0  0  0  0  0  0  0  0  0  0
   -6.0492   -6.3242   29.2224 C   0  0  0  0  0  0  0  0  0  0  0  0
   -6.3069   -5.2850   28.2070 C   0  0  0  0  0  0  0  0  0  0  0  0
   -5.2831   -4.8713   28.9679 N   0  0  0  0  0  0  0  0  0  0  0  0
   -4.4572   -3.6813   28.8631 C   0  0  0  0  0  0  0  0  0  0  0  0
   -4.4324   -2.8199   28.0159 O   0  0  0  0  0  0  0  0  0  0  0  0
   -3.2459   -3.4300   29.9601 C   0  0  0  0  0  0  0  0  0  0  0  0
   -2.3686   -2.3271   29.6266 O   0  0  0  0  0  0  0  0  0  0  0  0
   -4.8909   -6.7351   28.2620 C   0  0  0  0  0  0  0  0  0  0  0  0
   -6.3233   -9.9218   26.6394 H   0  0  0  0  0  0  0  0  0  0  0  0
   -5.6255   -8.4283   27.1604 H   0  0  0  0  0  0  0  0  0  0  0  0
   -7.4302   -8.9132   26.9560 H   0  0  0  0  0  0  0  0  0  0  0  0
   -8.6204  -14.1811   29.0998 H   0  0  0  0  0  0  0  0  0  0  0  0
  -10.5236  -12.5259   26.2926 H   0  0  0  0  0  0  0  0  0  0  0  0
  -11.2756  -12.5327   27.4368 H   0  0  0  0  0  0  0  0  0  0  0  0
  -11.7679  -14.5653   28.3081 H   0  0  0  0  0  0  0  0  0  0  0  0
  -12.3261  -14.2317   26.7356 H   0  0  0  0  0  0  0  0  0  0  0  0
   -8.6887  -16.8523   27.1469 H   0  0  0  0  0  0  0  0  0  0  0  0
   -8.8225  -16.1507   25.5527 H   0  0  0  0  0  0  0  0  0  0  0  0
   -5.3296   -8.3480   29.9278 H   0  0  0  0  0  0  0  0  0  0  0  0
   -6.9231   -6.5821   29.3219 H   0  0  0  0  0  0  0  0  0  0  0  0
   -6.1449   -5.9402   30.3271 H   0  0  0  0  0  0  0  0  0  0  0  0
   -7.0329   -4.4597   28.2510 H   0  0  0  0  0  0  0  0  0  0  0  0
   -6.1857   -5.3495   27.1286 H   0  0  0  0  0  0  0  0  0  0  0  0
   -3.6818   -3.2141   30.9363 H   0  0  0  0  0  0  0  0  0  0  0  0
   -2.5271   -4.2440   29.9894 H   0  0  0  0  0  0  0  0  0  0  0  0
   -2.4435   -2.2706   28.6442 H   0  0  0  0  0  0  0  0  0  0  0  0
   -5.0428   -6.7108   27.1910 H   0  0  0  0  0  0  0  0  0  0  0  0
   -3.8179   -7.0087   28.4390 H   0  0  0  0  0  0  0  0  0  0  0  0
  1  2  1  0
  2  3  1  0
  3  4  2  0
  3  5  1  0
  5  6  2  0
  6  7  1  0
  7  8  1  0
  8  9  2  0
  9 10  1  0
 10 11  1  0
 11 12  1  0
 12 13  1  0
  2 14  1  0
 14 15  1  0
 15 16  1  0
 16 17  1  0
 17 18  1  0
 18 19  2  0
 18 20  1  0
 20 21  1  0
 17 22  1  0
  9  5  1  0
 22 14  1  0
 13  8  1  0
  1 23  1  0
  1 24  1  0
  1 25  1  0
  7 26  1  0
 10 27  1  0
 10 28  1  0
 11 29  1  0
 11 30  1  0
 13 31  1  0
 13 32  1  0
 14 33  1  0
 15 34  1  0
 15 35  1  0
 16 36  1  0
 16 37  1  0
 20 38  1  0
 20 39  1  0
 21 40  1  0
 22 41  1  0
 22 42  1  0
M  END
>  <Energy>  (837) 
1108.2935731006332

>  <compound_id>  (837) 
47068

>  <target_id>  (837) 
1

>  <reference_id>  (837) 
53

>  <inspiration_ids>  (837) 
[53, 123]

>  <energy_score>  (837) 
977.1375323561881

>  <distance_score>  (837) 
10.165854321621255

>  <path>  (837) 
/opt/xchem-fragalysis-2/maxwin/BulkDock/SCRATCH/511024/C47068-P53/C47068-P53.minimised.mol

>  <scratch_subdir>  (837) 
/opt/xchem-fragalysis-2/maxwin/BulkDock/SCRATCH/511024/C47068-P53

>  <fragmenstein_runtime>  (837) 
21.065526247024536

>  <fragmenstein_outcome>  (837) 
too moved

>  <fragmenstein_mode>  (837) 
expansion

>  <fragmenstein_error>  (837) 


$$$$
C47068-P123
     RDKit          3D

 42 44  0  0  0  0  0  0  0  0999 V2000
   -6.4691  -11.4744   25.3922 C   0  0  0  0  0  0  0  0  0  0  0  0
   -7.4782  -11.5194   26.2397 N   0  0  0  0  0  0  0  0  0  0  0  0
   -7.6987  -13.4146   26.9609 C   0  0  0  0  0  0  0  0  0  0  0  0
   -7.0636  -13.5314   27.9545 O   0  0  0  0  0  0  0  0  0  0  0  0
   -8.6856  -15.2123   26.6056 C   0  0  0  0  0  0  0  0  0  0  0  0
   -8.1601  -16.0896   27.6061 N   0  0  0  0  0  0  0  0  0  0  0  0
   -8.0955  -17.4760   27.5328 N   0  0  0  0  0  0  0  0  0  0  0  0
   -9.2615  -18.2815   27.3419 C   0  0  0  0  0  0  0  0  0  0  0  0
   -9.7205  -16.9047   26.1572 C   0  0  0  0  0  0  0  0  0  0  0  0
  -11.1463  -17.5304   24.7988 C   0  0  0  0  0  0  0  0  0  0  0  0
  -11.7281  -19.6118   24.4272 C   0  0  0  0  0  0  0  0  0  0  0  0
  -11.5203  -21.1874   26.3052 S   0  0  0  0  0  0  0  0  0  0  0  0
   -9.5452  -20.4482   27.5475 C   0  0  0  0  0  0  0  0  0  0  0  0
   -6.4578   -9.7287   27.0648 C   0  0  0  0  0  0  0  0  0  0  0  0
   -7.2395   -8.6281   26.5498 C   0  0  0  0  0  0  0  0  0  0  0  0
   -6.4090   -6.7094   26.1939 C   0  0  0  0  0  0  0  0  0  0  0  0
   -6.1018   -5.9968   27.8644 N   0  0  0  0  0  0  0  0  0  0  0  0
   -5.4643   -4.6983   28.2862 C   0  0  0  0  0  0  0  0  0  0  0  0
   -4.9224   -3.8503   27.6442 O   0  0  0  0  0  0  0  0  0  0  0  0
   -5.5824   -4.2528   29.6938 C   0  0  0  0  0  0  0  0  0  0  0  0
   -4.4346   -3.5153   30.1365 O   0  0  0  0  0  0  0  0  0  0  0  0
   -5.3489   -7.9100   27.6735 C   0  0  0  0  0  0  0  0  0  0  0  0
   -7.1625  -10.9420   24.7760 H   0  0  0  0  0  0  0  0  0  0  0  0
   -6.1387  -12.0026   24.4607 H   0  0  0  0  0  0  0  0  0  0  0  0
   -6.3361  -12.4762   25.7042 H   0  0  0  0  0  0  0  0  0  0  0  0
   -7.2793  -17.8391   27.9827 H   0  0  0  0  0  0  0  0  0  0  0  0
  -10.6324  -17.3024   23.8424 H   0  0  0  0  0  0  0  0  0  0  0  0
  -12.0196  -16.8728   24.8994 H   0  0  0  0  0  0  0  0  0  0  0  0
  -12.7140  -19.7249   23.9271 H   0  0  0  0  0  0  0  0  0  0  0  0
  -11.0186  -20.0494   23.6855 H   0  0  0  0  0  0  0  0  0  0  0  0
   -8.5524  -21.0514   27.4341 H   0  0  0  0  0  0  0  0  0  0  0  0
  -10.0375  -20.9089   28.4960 H   0  0  0  0  0  0  0  0  0  0  0  0
   -6.7669   -9.5472   28.1860 H   0  0  0  0  0  0  0  0  0  0  0  0
   -7.4472   -9.1013   25.6199 H   0  0  0  0  0  0  0  0  0  0  0  0
   -8.0556   -9.0031   27.1892 H   0  0  0  0  0  0  0  0  0  0  0  0
   -7.1805   -5.9998   25.8491 H   0  0  0  0  0  0  0  0  0  0  0  0
   -5.4408   -6.4248   25.9513 H   0  0  0  0  0  0  0  0  0  0  0  0
   -5.9797   -4.9543   30.3609 H   0  0  0  0  0  0  0  0  0  0  0  0
   -6.3972   -3.5253   29.6687 H   0  0  0  0  0  0  0  0  0  0  0  0
   -4.1320   -3.1398   29.2915 H   0  0  0  0  0  0  0  0  0  0  0  0
   -4.3088   -7.6329   27.7367 H   0  0  0  0  0  0  0  0  0  0  0  0
   -5.4752   -8.0904   28.7550 H   0  0  0  0  0  0  0  0  0  0  0  0
  1  2  1  0
  2  3  1  0
  3  4  2  0
  3  5  1  0
  5  6  2  0
  6  7  1  0
  7  8  1  0
  8  9  2  0
  9 10  1  0
 10 11  1  0
 11 12  1  0
 12 13  1  0
  2 14  1  0
 14 15  1  0
 15 16  1  0
 16 17  1  0
 17 18  1  0
 18 19  2  0
 18 20  1  0
 20 21  1  0
 17 22  1  0
  9  5  1  0
 22 14  1  0
 13  8  1  0
  1 23  1  0
  1 24  1  0
  1 25  1  0
  7 26  1  0
 10 27  1  0
 10 28  1  0
 11 29  1  0
 11 30  1  0
 13 31  1  0
 13 32  1  0
 14 33  1  0
 15 34  1  0
 15 35  1  0
 16 36  1  0
 16 37  1  0
 20 38  1  0
 20 39  1  0
 21 40  1  0
 22 41  1  0
 22 42  1  0
M  END
>  <Energy>  (838) 
2066.4266775599685

>  <compound_id>  (838) 
47068

>  <target_id>  (838) 
1

>  <reference_id>  (838) 
123

>  <inspiration_ids>  (838) 
[53, 123]

>  <energy_score>  (838) 
1935.270636815536

>  <distance_score>  (838) 
9.644160070419689

>  <path>  (838) 
/opt/xchem-fragalysis-2/maxwin/BulkDock/SCRATCH/511024/C47068-P123/C47068-P123.minimised.mol

>  <scratch_subdir>  (838) 
/opt/xchem-fragalysis-2/maxwin/BulkDock/SCRATCH/511024/C47068-P123

>  <fragmenstein_runtime>  (838) 
22.196660041809082

>  <fragmenstein_outcome>  (838) 
too moved

>  <fragmenstein_mode>  (838) 
expansion

>  <fragmenstein_error>  (838) 


$$$$
C47069-P53
     RDKit          3D

 41 43  0  0  0  0  0  0  0  0999 V2000
  -10.6563   -8.8704   27.6033 C   0  0  0  0  0  0  0  0  0  0  0  0
  -10.7383   -9.8701   28.3328 N   0  0  0  0  0  0  0  0  0  0  0  0
  -12.3086  -10.3643   28.4080 C   0  0  0  0  0  0  0  0  0  0  0  0
  -13.1609  -10.0973   29.1499 O   0  0  0  0  0  0  0  0  0  0  0  0
  -12.7792  -11.3884   27.2928 C   0  0  0  0  0  0  0  0  0  0  0  0
  -12.7342  -11.1349   25.9666 N   0  0  0  0  0  0  0  0  0  0  0  0
  -13.2653  -12.2353   25.3735 N   0  0  0  0  0  0  0  0  0  0  0  0
  -13.5640  -13.2097   26.2488 C   0  0  0  0  0  0  0  0  0  0  0  0
  -13.3117  -12.7181   27.4902 C   0  0  0  0  0  0  0  0  0  0  0  0
  -13.6051  -13.7560   28.5067 C   0  0  0  0  0  0  0  0  0  0  0  0
  -14.3729  -14.8501   27.6758 C   0  0  0  0  0  0  0  0  0  0  0  0
  -14.0582  -14.5908   26.1692 C   0  0  0  0  0  0  0  0  0  0  0  0
   -9.5617   -8.7177   29.5795 C   0  0  0  0  0  0  0  0  0  0  0  0
   -7.6019   -8.8218   28.8261 C   0  0  0  0  0  0  0  0  0  0  0  0
   -6.5853   -6.9309   29.2615 C   0  0  0  0  0  0  0  0  0  0  0  0
   -6.8871   -6.1244   31.0023 N   0  0  0  0  0  0  0  0  0  0  0  0
   -6.4876   -4.2267   30.8191 C   0  0  0  0  0  0  0  0  0  0  0  0
   -7.2190   -3.2881   30.5610 O   0  0  0  0  0  0  0  0  0  0  0  0
   -5.0364   -3.8137   31.1707 C   0  0  0  0  0  0  0  0  0  0  0  0
   -4.8838   -2.6090   31.9404 O   0  0  0  0  0  0  0  0  0  0  0  0
   -8.9238   -7.0668   31.0116 C   0  0  0  0  0  0  0  0  0  0  0  0
   -9.6150   -9.0757   27.5806 H   0  0  0  0  0  0  0  0  0  0  0  0
  -11.0599   -9.4866   26.7690 H   0  0  0  0  0  0  0  0  0  0  0  0
  -11.2630   -8.2571   26.8666 H   0  0  0  0  0  0  0  0  0  0  0  0
  -13.3476  -12.2377   24.3622 H   0  0  0  0  0  0  0  0  0  0  0  0
  -14.2041  -13.3885   29.3431 H   0  0  0  0  0  0  0  0  0  0  0  0
  -12.6762  -14.1992   28.8682 H   0  0  0  0  0  0  0  0  0  0  0  0
  -15.4513  -14.7338   27.8452 H   0  0  0  0  0  0  0  0  0  0  0  0
  -14.0984  -15.8630   27.9717 H   0  0  0  0  0  0  0  0  0  0  0  0
  -13.2764  -15.2651   25.8097 H   0  0  0  0  0  0  0  0  0  0  0  0
  -14.9527  -14.6972   25.5504 H   0  0  0  0  0  0  0  0  0  0  0  0
   -9.4511   -9.7262   30.0332 H   0  0  0  0  0  0  0  0  0  0  0  0
   -7.0686   -9.6021   29.3933 H   0  0  0  0  0  0  0  0  0  0  0  0
   -7.5431   -9.0589   27.7627 H   0  0  0  0  0  0  0  0  0  0  0  0
   -6.3392   -5.9574   28.6874 H   0  0  0  0  0  0  0  0  0  0  0  0
   -5.5995   -7.4662   29.0620 H   0  0  0  0  0  0  0  0  0  0  0  0
   -4.7909   -4.4197   32.0180 H   0  0  0  0  0  0  0  0  0  0  0  0
   -4.3866   -3.7361   30.3122 H   0  0  0  0  0  0  0  0  0  0  0  0
   -3.9695   -2.3004   31.8243 H   0  0  0  0  0  0  0  0  0  0  0  0
   -9.9539   -7.1168   31.5288 H   0  0  0  0  0  0  0  0  0  0  0  0
   -8.7298   -7.1770   32.2304 H   0  0  0  0  0  0  0  0  0  0  0  0
  1  2  1  0
  2  3  1  0
  3  4  2  0
  3  5  1  0
  5  6  2  0
  6  7  1  0
  7  8  1  0
  8  9  2  0
  9 10  1  0
 10 11  1  0
 11 12  1  0
  2 13  1  0
 13 14  1  0
 14 15  1  0
 15 16  1  0
 16 17  1  0
 17 18  2  0
 17 19  1  0
 19 20  1  0
 16 21  1  0
  9  5  1  0
 21 13  1  0
 12  8  1  0
  1 22  1  0
  1 23  1  0
  1 24  1  0
  7 25  1  0
 10 26  1  0
 10 27  1  0
 11 28  1  0
 11 29  1  0
 12 30  1  0
 12 31  1  0
 13 32  1  0
 14 33  1  0
 14 34  1  0
 15 35  1  0
 15 36  1  0
 19 37  1  0
 19 38  1  0
 20 39  1  0
 21 40  1  0
 21 41  1  0
M  END
>  <Energy>  (839) 
1255.9743158550166

>  <compound_id>  (839) 
47069

>  <target_id>  (839) 
1

>  <reference_id>  (839) 
53

>  <inspiration_ids>  (839) 
[53, 123]

>  <energy_score>  (839) 
1106.1561054901395

>  <distance_score>  (839) 
11.812593124805726

>  <path>  (839) 
/opt/xchem-fragalysis-2/maxwin/BulkDock/SCRATCH/511024/C47069-P53/C47069-P53.minimised.mol

>  <scratch_subdir>  (839) 
/opt/xchem-fragalysis-2/maxwin/BulkDock/SCRATCH/511024/C47069-P53

>  <fragmenstein_runtime>  (839) 
35.06742715835571

>  <fragmenstein_outcome>  (839) 
too moved

>  <fragmenstein_mode>  (839) 
expansion

>  <fragmenstein_error>  (839) 


$$$$
C47069-P123
     RDKit          3D

 41 43  0  0  0  0  0  0  0  0999 V2000
   -4.6289   -9.9566   32.0458 C   0  0  0  0  0  0  0  0  0  0  0  0
   -5.4994  -10.7795   32.7582 N   0  0  0  0  0  0  0  0  0  0  0  0
   -7.0514  -11.7485   32.1768 C   0  0  0  0  0  0  0  0  0  0  0  0
   -8.2008  -11.2248   32.2188 O   0  0  0  0  0  0  0  0  0  0  0  0
   -7.2141  -13.6577   31.7051 C   0  0  0  0  0  0  0  0  0  0  0  0
   -7.5681  -13.7778   33.0903 N   0  0  0  0  0  0  0  0  0  0  0  0
   -7.0929  -15.1944   33.8392 N   0  0  0  0  0  0  0  0  0  0  0  0
   -7.7487  -16.1377   33.2069 C   0  0  0  0  0  0  0  0  0  0  0  0
   -8.3830  -15.0390   32.3595 C   0  0  0  0  0  0  0  0  0  0  0  0
   -9.9525  -15.4196   33.1088 C   0  0  0  0  0  0  0  0  0  0  0  0
   -9.7385  -16.4903   34.3146 C   0  0  0  0  0  0  0  0  0  0  0  0
   -8.3933  -17.1468   34.0976 C   0  0  0  0  0  0  0  0  0  0  0  0
   -5.3205   -9.2102   33.5366 C   0  0  0  0  0  0  0  0  0  0  0  0
   -4.7210   -7.7589   33.2780 C   0  0  0  0  0  0  0  0  0  0  0  0
   -3.8647   -7.4558   34.4913 C   0  0  0  0  0  0  0  0  0  0  0  0
   -3.0027   -8.6340   34.7916 N   0  0  0  0  0  0  0  0  0  0  0  0
   -2.0210   -8.2955   35.7668 C   0  0  0  0  0  0  0  0  0  0  0  0
   -2.0524   -8.3712   36.9684 O   0  0  0  0  0  0  0  0  0  0  0  0
   -0.7660   -7.7421   35.0727 C   0  0  0  0  0  0  0  0  0  0  0  0
   -0.4454   -6.4495   35.5654 O   0  0  0  0  0  0  0  0  0  0  0  0
   -4.3304   -9.2868   34.9354 C   0  0  0  0  0  0  0  0  0  0  0  0
   -5.0806   -9.0601   31.5654 H   0  0  0  0  0  0  0  0  0  0  0  0
   -3.6564   -9.5889   32.4716 H   0  0  0  0  0  0  0  0  0  0  0  0
   -3.9957  -10.7119   31.5295 H   0  0  0  0  0  0  0  0  0  0  0  0
   -7.0908  -15.1868   34.8403 H   0  0  0  0  0  0  0  0  0  0  0  0
  -10.7087  -15.6306   32.3820 H   0  0  0  0  0  0  0  0  0  0  0  0
  -10.4791  -14.6134   33.5639 H   0  0  0  0  0  0  0  0  0  0  0  0
  -10.5356  -17.2061   34.5144 H   0  0  0  0  0  0  0  0  0  0  0  0
   -9.7124  -15.9574   35.2747 H   0  0  0  0  0  0  0  0  0  0  0  0
   -7.8688  -17.2289   35.0595 H   0  0  0  0  0  0  0  0  0  0  0  0
   -8.4228  -18.1712   33.7351 H   0  0  0  0  0  0  0  0  0  0  0  0
   -6.0600   -9.4869   34.2018 H   0  0  0  0  0  0  0  0  0  0  0  0
   -4.0089   -7.7078   32.4536 H   0  0  0  0  0  0  0  0  0  0  0  0
   -5.4824   -6.9859   33.1385 H   0  0  0  0  0  0  0  0  0  0  0  0
   -4.3985   -7.0545   35.3700 H   0  0  0  0  0  0  0  0  0  0  0  0
   -3.1893   -6.6297   34.2231 H   0  0  0  0  0  0  0  0  0  0  0  0
    0.0698   -8.4207   35.2693 H   0  0  0  0  0  0  0  0  0  0  0  0
   -0.9027   -7.6738   33.9894 H   0  0  0  0  0  0  0  0  0  0  0  0
   -0.4246   -6.5406   36.5384 H   0  0  0  0  0  0  0  0  0  0  0  0
   -4.1235  -10.3091   35.2693 H   0  0  0  0  0  0  0  0  0  0  0  0
   -4.8511   -8.9232   35.8437 H   0  0  0  0  0  0  0  0  0  0  0  0
  1  2  1  0
  2  3  1  0
  3  4  2  0
  3  5  1  0
  5  6  2  0
  6  7  1  0
  7  8  1  0
  8  9  2  0
  9 10  1  0
 10 11  1  0
 11 12  1  0
  2 13  1  0
 13 14  1  0
 14 15  1  0
 15 16  1  0
 16 17  1  0
 17 18  2  0
 17 19  1  0
 19 20  1  0
 16 21  1  0
  9  5  1  0
 21 13  1  0
 12  8  1  0
  1 22  1  0
  1 23  1  0
  1 24  1  0
  7 25  1  0
 10 26  1  0
 10 27  1  0
 11 28  1  0
 11 29  1  0
 12 30  1  0
 12 31  1  0
 13 32  1  0
 14 33  1  0
 14 34  1  0
 15 35  1  0
 15 36  1  0
 19 37  1  0
 19 38  1  0
 20 39  1  0
 21 40  1  0
 21 41  1  0
M  END
>  <Energy>  (840) 
874.09467570514721

>  <compound_id>  (840) 
47069

>  <target_id>  (840) 
1

>  <reference_id>  (840) 
123

>  <inspiration_ids>  (840) 
[53, 123]

>  <energy_score>  (840) 
724.2764653402833

>  <distance_score>  (840) 
11.971152496143459

>  <path>  (840) 
/opt/xchem-fragalysis-2/maxwin/BulkDock/SCRATCH/511024/C47069-P123/C47069-P123.minimised.mol

>  <scratch_subdir>  (840) 
/opt/xchem-fragalysis-2/maxwin/BulkDock/SCRATCH/511024/C47069-P123

>  <fragmenstein_runtime>  (840) 
27.240365266799927

>  <fragmenstein_outcome>  (840) 
too moved

>  <fragmenstein_mode>  (840) 
expansion

>  <fragmenstein_error>  (840) 


$$$$
C51597-P103
     RDKit          3D

 47 49  0  0  0  0  0  0  0  0999 V2000
    6.6302   -1.0712   21.0651 O   0  0  0  0  0  0  0  0  0  0  0  0
    5.7295   -1.8968   21.4260 C   0  0  0  0  0  0  0  0  0  0  0  0
    5.3216   -3.0283   20.0067 C   0  0  0  0  0  0  0  0  0  0  0  0
    4.9530   -2.0564   18.2193 C   0  0  0  0  0  0  0  0  0  0  0  0
    6.3202   -0.8935   17.3295 C   0  0  0  0  0  0  0  0  0  0  0  0
    7.8867   -0.2693   16.7186 N   0  0  0  0  0  0  0  0  0  0  0  0
    8.3966    1.0331   16.8963 C   0  0  0  0  0  0  0  0  0  0  0  0
    9.6075    1.2264   16.4454 N   0  0  0  0  0  0  0  0  0  0  0  0
    9.9533    0.0618   15.8809 C   0  0  0  0  0  0  0  0  0  0  0  0
   11.2297   -0.2879   15.4155 C   0  0  0  0  0  0  0  0  0  0  0  0
   11.4451   -1.5852   14.9955 C   0  0  0  0  0  0  0  0  0  0  0  0
   10.3580   -2.4361   14.8950 C   0  0  0  0  0  0  0  0  0  0  0  0
    9.0246   -2.0206   15.1725 C   0  0  0  0  0  0  0  0  0  0  0  0
    8.8704   -0.8326   15.8688 C   0  0  0  0  0  0  0  0  0  0  0  0
    4.9074   -2.0656   22.9555 N   0  0  0  0  0  0  0  0  0  0  0  0
    4.9674   -1.2660   24.1512 C   0  0  0  0  0  0  0  0  0  0  0  0
    3.8171   -1.6187   25.1540 C   0  0  0  0  0  0  0  0  0  0  0  0
    3.7094   -0.9005   26.5298 C   0  0  0  0  0  0  0  0  0  0  0  0
    3.5829    0.6321   26.3722 C   0  0  0  0  0  0  0  0  0  0  0  0
    2.7619    1.6076   27.6831 S   0  0  0  0  0  0  0  0  0  0  0  0
    1.4911    0.4221   28.1857 C   0  0  0  0  0  0  0  0  0  0  0  0
    2.1176   -0.9406   28.4410 C   0  0  0  0  0  0  0  0  0  0  0  0
    2.6126   -1.5960   27.2387 N   0  0  0  0  0  0  0  0  0  0  0  0
    5.8974   -3.9231   19.8105 H   0  0  0  0  0  0  0  0  0  0  0  0
    4.6372   -3.6656   20.5174 H   0  0  0  0  0  0  0  0  0  0  0  0
    4.3354   -2.7101   17.5243 H   0  0  0  0  0  0  0  0  0  0  0  0
    4.0519   -1.4306   18.1886 H   0  0  0  0  0  0  0  0  0  0  0  0
    6.7736   -0.6712   18.3321 H   0  0  0  0  0  0  0  0  0  0  0  0
    6.5985   -1.4292   16.4117 H   0  0  0  0  0  0  0  0  0  0  0  0
    7.8962    1.8476   17.4012 H   0  0  0  0  0  0  0  0  0  0  0  0
   12.0386    0.4323   15.4678 H   0  0  0  0  0  0  0  0  0  0  0  0
   12.4353   -1.9140   14.6975 H   0  0  0  0  0  0  0  0  0  0  0  0
   10.5413   -3.4384   14.5188 H   0  0  0  0  0  0  0  0  0  0  0  0
    8.1943   -2.6904   14.9852 H   0  0  0  0  0  0  0  0  0  0  0  0
    4.1895   -2.7664   22.8846 H   0  0  0  0  0  0  0  0  0  0  0  0
    5.7972   -1.6835   24.6681 H   0  0  0  0  0  0  0  0  0  0  0  0
    4.9563   -0.2213   23.9458 H   0  0  0  0  0  0  0  0  0  0  0  0
    3.8415   -2.7028   25.3235 H   0  0  0  0  0  0  0  0  0  0  0  0
    2.8802   -1.4669   24.6525 H   0  0  0  0  0  0  0  0  0  0  0  0
    4.6306   -1.1063   27.0896 H   0  0  0  0  0  0  0  0  0  0  0  0
    4.5997    1.0313   26.3317 H   0  0  0  0  0  0  0  0  0  0  0  0
    3.0992    0.9009   25.4319 H   0  0  0  0  0  0  0  0  0  0  0  0
    0.7093    0.3697   27.4217 H   0  0  0  0  0  0  0  0  0  0  0  0
    1.0244    0.7938   29.1036 H   0  0  0  0  0  0  0  0  0  0  0  0
    2.9164   -0.8765   29.1905 H   0  0  0  0  0  0  0  0  0  0  0  0
    1.3525   -1.5932   28.8782 H   0  0  0  0  0  0  0  0  0  0  0  0
    1.8458   -1.7880   26.5880 H   0  0  0  0  0  0  0  0  0  0  0  0
  1  2  2  0
  2  3  1  0
  3  4  1  0
  4  5  1  0
  5  6  1  0
  6  7  1  0
  7  8  2  0
  8  9  1  0
  9 10  2  0
 10 11  1  0
 11 12  2  0
 12 13  1  0
 13 14  2  0
  2 15  1  0
 15 16  1  0
 16 17  1  0
 17 18  1  0
 18 19  1  0
 19 20  1  0
 20 21  1  0
 21 22  1  0
 22 23  1  0
 14  6  1  0
 23 18  1  0
 14  9  1  0
  3 24  1  0
  3 25  1  0
  4 26  1  0
  4 27  1  0
  5 28  1  0
  5 29  1  0
  7 30  1  0
 10 31  1  0
 11 32  1  0
 12 33  1  0
 13 34  1  0
 15 35  1  0
 16 36  1  0
 16 37  1  0
 17 38  1  0
 17 39  1  0
 18 40  1  0
 19 41  1  0
 19 42  1  0
 21 43  1  0
 21 44  1  0
 22 45  1  0
 22 46  1  0
 23 47  1  0
M  END
>  <Energy>  (841) 
404.67033068149811

>  <compound_id>  (841) 
51597

>  <target_id>  (841) 
1

>  <reference_id>  (841) 
103

>  <inspiration_ids>  (841) 
[103, 70]

>  <energy_score>  (841) 
334.66922109770695

>  <distance_score>  (841) 
5.492510916096911

>  <path>  (841) 
/opt/xchem-fragalysis-2/maxwin/BulkDock/SCRATCH/511024/C51597-P103/C51597-P103.minimised.mol

>  <scratch_subdir>  (841) 
/opt/xchem-fragalysis-2/maxwin/BulkDock/SCRATCH/511024/C51597-P103

>  <fragmenstein_runtime>  (841) 
9.110867738723755

>  <fragmenstein_outcome>  (841) 
too moved

>  <fragmenstein_mode>  (841) 
expansion

>  <fragmenstein_error>  (841) 


$$$$
C51597-P70
     RDKit          3D

 47 49  0  0  0  0  0  0  0  0999 V2000
    2.5840    1.9108   20.9193 O   0  0  0  0  0  0  0  0  0  0  0  0
    3.2824    1.5743   21.8320 C   0  0  0  0  0  0  0  0  0  0  0  0
    4.9483    0.4273   21.5555 C   0  0  0  0  0  0  0  0  0  0  0  0
    6.7397   -0.0357   20.5678 C   0  0  0  0  0  0  0  0  0  0  0  0
    7.3539   -0.0672   18.8459 C   0  0  0  0  0  0  0  0  0  0  0  0
    8.2107    0.7407   17.5208 N   0  0  0  0  0  0  0  0  0  0  0  0
    8.3077    2.1390   17.3418 C   0  0  0  0  0  0  0  0  0  0  0  0
    9.3630    2.4920   16.6497 N   0  0  0  0  0  0  0  0  0  0  0  0
    9.8095    1.3333   16.1088 C   0  0  0  0  0  0  0  0  0  0  0  0
   10.9633    1.1043   15.3452 C   0  0  0  0  0  0  0  0  0  0  0  0
   11.2013   -0.1829   14.8788 C   0  0  0  0  0  0  0  0  0  0  0  0
   10.2169   -1.1520   15.0224 C   0  0  0  0  0  0  0  0  0  0  0  0
    8.9919   -0.8735   15.6443 C   0  0  0  0  0  0  0  0  0  0  0  0
    8.9215    0.2883   16.3990 C   0  0  0  0  0  0  0  0  0  0  0  0
    3.2246    1.9273   23.2237 N   0  0  0  0  0  0  0  0  0  0  0  0
    2.3779    2.8634   23.9393 C   0  0  0  0  0  0  0  0  0  0  0  0
    1.1782    3.5973   23.3281 C   0  0  0  0  0  0  0  0  0  0  0  0
    0.2192    4.0090   24.4767 C   0  0  0  0  0  0  0  0  0  0  0  0
   -0.6893    5.1765   24.0770 C   0  0  0  0  0  0  0  0  0  0  0  0
   -1.3721    5.9408   25.5890 S   0  0  0  0  0  0  0  0  0  0  0  0
   -1.6526    4.4324   26.5872 C   0  0  0  0  0  0  0  0  0  0  0  0
   -1.7643    3.1847   25.7124 C   0  0  0  0  0  0  0  0  0  0  0  0
   -0.5227    2.8189   24.9975 N   0  0  0  0  0  0  0  0  0  0  0  0
    4.7181   -0.5484   22.0021 H   0  0  0  0  0  0  0  0  0  0  0  0
    5.4969    0.9620   22.2608 H   0  0  0  0  0  0  0  0  0  0  0  0
    7.4435    0.7540   20.8931 H   0  0  0  0  0  0  0  0  0  0  0  0
    7.0128   -1.0412   20.7998 H   0  0  0  0  0  0  0  0  0  0  0  0
    6.5625   -0.5685   18.3116 H   0  0  0  0  0  0  0  0  0  0  0  0
    7.2040    0.9954   19.0878 H   0  0  0  0  0  0  0  0  0  0  0  0
    7.6226    2.8267   17.8176 H   0  0  0  0  0  0  0  0  0  0  0  0
   11.6621    1.9126   15.1635 H   0  0  0  0  0  0  0  0  0  0  0  0
   12.1067   -0.4052   14.3216 H   0  0  0  0  0  0  0  0  0  0  0  0
   10.3673   -2.1243   14.5547 H   0  0  0  0  0  0  0  0  0  0  0  0
    8.1653   -1.5629   15.5727 H   0  0  0  0  0  0  0  0  0  0  0  0
    3.9153    1.3934   23.7218 H   0  0  0  0  0  0  0  0  0  0  0  0
    2.0737    2.2996   24.8269 H   0  0  0  0  0  0  0  0  0  0  0  0
    3.0654    3.6281   24.3241 H   0  0  0  0  0  0  0  0  0  0  0  0
    0.6353    3.0351   22.5651 H   0  0  0  0  0  0  0  0  0  0  0  0
    1.5586    4.4891   22.8140 H   0  0  0  0  0  0  0  0  0  0  0  0
    0.8635    4.3692   25.2937 H   0  0  0  0  0  0  0  0  0  0  0  0
   -0.1236    5.9522   23.5510 H   0  0  0  0  0  0  0  0  0  0  0  0
   -1.5018    4.8565   23.4157 H   0  0  0  0  0  0  0  0  0  0  0  0
   -2.5657    4.5599   27.1735 H   0  0  0  0  0  0  0  0  0  0  0  0
   -0.8263    4.3309   27.2994 H   0  0  0  0  0  0  0  0  0  0  0  0
   -2.5790    3.2962   24.9863 H   0  0  0  0  0  0  0  0  0  0  0  0
   -2.0452    2.3322   26.3425 H   0  0  0  0  0  0  0  0  0  0  0  0
    0.0912    2.3753   25.6845 H   0  0  0  0  0  0  0  0  0  0  0  0
  1  2  2  0
  2  3  1  0
  3  4  1  0
  4  5  1  0
  5  6  1  0
  6  7  1  0
  7  8  2  0
  8  9  1  0
  9 10  2  0
 10 11  1  0
 11 12  2  0
 12 13  1  0
 13 14  2  0
  2 15  1  0
 15 16  1  0
 16 17  1  0
 17 18  1  0
 18 19  1  0
 19 20  1  0
 20 21  1  0
 21 22  1  0
 22 23  1  0
 14  6  1  0
 23 18  1  0
 14  9  1  0
  3 24  1  0
  3 25  1  0
  4 26  1  0
  4 27  1  0
  5 28  1  0
  5 29  1  0
  7 30  1  0
 10 31  1  0
 11 32  1  0
 12 33  1  0
 13 34  1  0
 15 35  1  0
 16 36  1  0
 16 37  1  0
 17 38  1  0
 17 39  1  0
 18 40  1  0
 19 41  1  0
 19 42  1  0
 21 43  1  0
 21 44  1  0
 22 45  1  0
 22 46  1  0
 23 47  1  0
M  END
>  <Energy>  (842) 
380.74731437025247

>  <compound_id>  (842) 
51597

>  <target_id>  (842) 
1

>  <reference_id>  (842) 
70

>  <inspiration_ids>  (842) 
[103, 70]

>  <energy_score>  (842) 
310.7462047864624

>  <distance_score>  (842) 
4.350997521999854

>  <path>  (842) 
/opt/xchem-fragalysis-2/maxwin/BulkDock/SCRATCH/511024/C51597-P70/C51597-P70.minimised.mol

>  <scratch_subdir>  (842) 
/opt/xchem-fragalysis-2/maxwin/BulkDock/SCRATCH/511024/C51597-P70

>  <fragmenstein_runtime>  (842) 
8.524733543395996

>  <fragmenstein_outcome>  (842) 
too moved

>  <fragmenstein_mode>  (842) 
expansion

>  <fragmenstein_error>  (842) 


$$$$
C51598-P103
     RDKit          3D

 40 42  0  0  0  0  0  0  0  0999 V2000
    6.1258   -1.1128   17.9960 N   0  0  0  0  0  0  0  0  0  0  0  0
    7.1646   -0.3228   18.8060 C   0  0  0  0  0  0  0  0  0  0  0  0
    6.8753   -0.5204   20.6664 C   0  0  0  0  0  0  0  0  0  0  0  0
    5.4789   -1.4351   21.8656 C   0  0  0  0  0  0  0  0  0  0  0  0
    4.9606   -1.8414   23.5849 N   0  0  0  0  0  0  0  0  0  0  0  0
    4.8417   -0.8494   24.6874 C   0  0  0  0  0  0  0  0  0  0  0  0
    3.7553   -0.4074   25.7430 C   0  0  0  0  0  0  0  0  0  0  0  0
    3.0011   -1.5111   26.3166 N   0  0  0  0  0  0  0  0  0  0  0  0
    3.4544   -2.6846   25.5456 C   0  0  0  0  0  0  0  0  0  0  0  0
    3.6567   -2.4731   23.9909 C   0  0  0  0  0  0  0  0  0  0  0  0
    8.2458    0.2777   17.4137 C   0  0  0  0  0  0  0  0  0  0  0  0
    8.5943   -0.5404   16.2885 C   0  0  0  0  0  0  0  0  0  0  0  0
    9.6101   -0.2278   15.3724 C   0  0  0  0  0  0  0  0  0  0  0  0
   10.1185    1.0534   15.4443 C   0  0  0  0  0  0  0  0  0  0  0  0
   11.0893    1.7064   14.7350 N   0  0  0  0  0  0  0  0  0  0  0  0
   11.0766    3.0136   15.1250 C   0  0  0  0  0  0  0  0  0  0  0  0
   10.1534    3.2374   16.0316 N   0  0  0  0  0  0  0  0  0  0  0  0
    9.5817    2.0136   16.2862 C   0  0  0  0  0  0  0  0  0  0  0  0
    8.5975    1.6331   17.2275 C   0  0  0  0  0  0  0  0  0  0  0  0
    5.1650   -0.8540   18.0687 H   0  0  0  0  0  0  0  0  0  0  0  0
    5.9400   -1.8080   18.7455 H   0  0  0  0  0  0  0  0  0  0  0  0
    8.0614   -0.8752   19.0574 H   0  0  0  0  0  0  0  0  0  0  0  0
    7.2072    0.4701   20.9759 H   0  0  0  0  0  0  0  0  0  0  0  0
    7.7060   -1.0988   20.8496 H   0  0  0  0  0  0  0  0  0  0  0  0
    5.5213   -2.4382   21.4250 H   0  0  0  0  0  0  0  0  0  0  0  0
    4.7828   -0.6094   21.8649 H   0  0  0  0  0  0  0  0  0  0  0  0
    4.9876    0.0516   24.1815 H   0  0  0  0  0  0  0  0  0  0  0  0
    5.5274   -1.3025   25.4198 H   0  0  0  0  0  0  0  0  0  0  0  0
    3.1064    0.3544   25.3137 H   0  0  0  0  0  0  0  0  0  0  0  0
    4.2733    0.1085   26.5621 H   0  0  0  0  0  0  0  0  0  0  0  0
    2.0155   -1.4165   26.1021 H   0  0  0  0  0  0  0  0  0  0  0  0
    4.3711   -2.8921   26.0365 H   0  0  0  0  0  0  0  0  0  0  0  0
    2.7869   -3.5134   25.7294 H   0  0  0  0  0  0  0  0  0  0  0  0
    2.8259   -1.8412   23.8588 H   0  0  0  0  0  0  0  0  0  0  0  0
    3.2758   -3.2424   23.3583 H   0  0  0  0  0  0  0  0  0  0  0  0
    8.0842   -1.4712   16.0673 H   0  0  0  0  0  0  0  0  0  0  0  0
    9.9331   -0.9367   14.6221 H   0  0  0  0  0  0  0  0  0  0  0  0
   11.6837    1.2976   14.0293 H   0  0  0  0  0  0  0  0  0  0  0  0
   11.7471    3.7540   14.7107 H   0  0  0  0  0  0  0  0  0  0  0  0
    8.1066    2.4120   17.7947 H   0  0  0  0  0  0  0  0  0  0  0  0
  1  2  1  0
  2  3  1  0
  3  4  1  0
  4  5  1  0
  5  6  1  0
  6  7  1  0
  7  8  1  0
  8  9  1  0
  9 10  1  0
  2 11  1  0
 11 12  2  0
 12 13  1  0
 13 14  2  0
 14 15  1  0
 15 16  1  0
 16 17  2  0
 17 18  1  0
 18 19  2  0
 10  5  1  0
 19 11  1  0
 18 14  1  0
  1 20  1  0
  1 21  1  0
  2 22  1  0
  3 23  1  0
  3 24  1  0
  4 25  1  0
  4 26  1  0
  6 27  1  0
  6 28  1  0
  7 29  1  0
  7 30  1  0
  8 31  1  0
  9 32  1  0
  9 33  1  0
 10 34  1  0
 10 35  1  0
 12 36  1  0
 13 37  1  0
 15 38  1  0
 16 39  1  0
 19 40  1  0
M  END
>  <Energy>  (843) 
433.05614449650784

>  <compound_id>  (843) 
51598

>  <target_id>  (843) 
1

>  <reference_id>  (843) 
103

>  <inspiration_ids>  (843) 
[103, 70]

>  <energy_score>  (843) 
315.8066364759966

>  <distance_score>  (843) 
5.605680740471587

>  <path>  (843) 
/opt/xchem-fragalysis-2/maxwin/BulkDock/SCRATCH/511024/C51598-P103/C51598-P103.minimised.mol

>  <scratch_subdir>  (843) 
/opt/xchem-fragalysis-2/maxwin/BulkDock/SCRATCH/511024/C51598-P103

>  <fragmenstein_runtime>  (843) 
31.15281057357788

>  <fragmenstein_outcome>  (843) 
too moved

>  <fragmenstein_mode>  (843) 
expansion

>  <fragmenstein_error>  (843) 


$$$$
C51598-P70
     RDKit          3D

 40 42  0  0  0  0  0  0  0  0999 V2000
    8.4953   -3.4187   20.4357 N   0  0  0  0  0  0  0  0  0  0  0  0
    8.4495   -4.7214   20.5013 C   0  0  0  0  0  0  0  0  0  0  0  0
    7.6666   -4.8516   22.4052 C   0  0  0  0  0  0  0  0  0  0  0  0
    6.8686   -3.8385   23.8552 C   0  0  0  0  0  0  0  0  0  0  0  0
    5.7683   -2.4541   24.5424 N   0  0  0  0  0  0  0  0  0  0  0  0
    6.3774   -1.9357   26.0000 C   0  0  0  0  0  0  0  0  0  0  0  0
    5.5970   -0.8002   26.7644 C   0  0  0  0  0  0  0  0  0  0  0  0
    4.2719   -0.4995   26.2210 N   0  0  0  0  0  0  0  0  0  0  0  0
    3.6637   -1.8049   25.9495 C   0  0  0  0  0  0  0  0  0  0  0  0
    4.2936   -2.5646   24.7376 C   0  0  0  0  0  0  0  0  0  0  0  0
   10.5099   -5.1325   20.1809 C   0  0  0  0  0  0  0  0  0  0  0  0
   11.6445   -5.3605   19.3438 C   0  0  0  0  0  0  0  0  0  0  0  0
   12.8065   -4.5944   18.6651 C   0  0  0  0  0  0  0  0  0  0  0  0
   13.5136   -3.8235   19.5289 C   0  0  0  0  0  0  0  0  0  0  0  0
   14.6488   -3.0780   19.4707 N   0  0  0  0  0  0  0  0  0  0  0  0
   14.8731   -2.6027   20.7322 C   0  0  0  0  0  0  0  0  0  0  0  0
   13.9362   -2.9920   21.5709 N   0  0  0  0  0  0  0  0  0  0  0  0
   13.0305   -3.6909   20.8069 C   0  0  0  0  0  0  0  0  0  0  0  0
   11.6740   -4.2089   21.0655 C   0  0  0  0  0  0  0  0  0  0  0  0
    8.5738   -3.5804   19.4557 H   0  0  0  0  0  0  0  0  0  0  0  0
    7.4753   -3.2747   20.6292 H   0  0  0  0  0  0  0  0  0  0  0  0
    7.5807   -4.9132   19.8031 H   0  0  0  0  0  0  0  0  0  0  0  0
    7.3279   -3.8918   22.1891 H   0  0  0  0  0  0  0  0  0  0  0  0
    7.2104   -5.8370   22.5247 H   0  0  0  0  0  0  0  0  0  0  0  0
    6.2200   -4.6598   23.9342 H   0  0  0  0  0  0  0  0  0  0  0  0
    7.6173   -3.6458   24.6277 H   0  0  0  0  0  0  0  0  0  0  0  0
    7.4233   -1.6463   25.8374 H   0  0  0  0  0  0  0  0  0  0  0  0
    6.4847   -2.6759   26.7999 H   0  0  0  0  0  0  0  0  0  0  0  0
    6.1908    0.1205   26.7948 H   0  0  0  0  0  0  0  0  0  0  0  0
    5.4813   -1.0980   27.8153 H   0  0  0  0  0  0  0  0  0  0  0  0
    4.4117   -0.1030   25.2795 H   0  0  0  0  0  0  0  0  0  0  0  0
    3.7068   -2.4337   26.8486 H   0  0  0  0  0  0  0  0  0  0  0  0
    2.6138   -1.6123   25.7884 H   0  0  0  0  0  0  0  0  0  0  0  0
    3.8262   -2.2183   23.8215 H   0  0  0  0  0  0  0  0  0  0  0  0
    3.9770   -3.5878   24.8563 H   0  0  0  0  0  0  0  0  0  0  0  0
   12.2791   -6.0767   19.9724 H   0  0  0  0  0  0  0  0  0  0  0  0
   13.1393   -4.8378   17.6632 H   0  0  0  0  0  0  0  0  0  0  0  0
   15.2305   -2.9269   18.6599 H   0  0  0  0  0  0  0  0  0  0  0  0
   15.7275   -1.9890   20.9819 H   0  0  0  0  0  0  0  0  0  0  0  0
   11.4897   -3.8253   22.0684 H   0  0  0  0  0  0  0  0  0  0  0  0
  1  2  1  0
  2  3  1  0
  3  4  1  0
  4  5  1  0
  5  6  1  0
  6  7  1  0
  7  8  1  0
  8  9  1  0
  9 10  1  0
  2 11  1  0
 11 12  2  0
 12 13  1  0
 13 14  2  0
 14 15  1  0
 15 16  1  0
 16 17  2  0
 17 18  1  0
 18 19  2  0
 10  5  1  0
 19 11  1  0
 18 14  1  0
  1 20  1  0
  1 21  1  0
  2 22  1  0
  3 23  1  0
  3 24  1  0
  4 25  1  0
  4 26  1  0
  6 27  1  0
  6 28  1  0
  7 29  1  0
  7 30  1  0
  8 31  1  0
  9 32  1  0
  9 33  1  0
 10 34  1  0
 10 35  1  0
 12 36  1  0
 13 37  1  0
 15 38  1  0
 16 39  1  0
 19 40  1  0
M  END
>  <Energy>  (844) 
712.97450205275425

>  <compound_id>  (844) 
51598

>  <target_id>  (844) 
1

>  <reference_id>  (844) 
70

>  <inspiration_ids>  (844) 
[103, 70]

>  <energy_score>  (844) 
595.724994032241

>  <distance_score>  (844) 
6.383232587613872

>  <path>  (844) 
/opt/xchem-fragalysis-2/maxwin/BulkDock/SCRATCH/511024/C51598-P70/C51598-P70.minimised.mol

>  <scratch_subdir>  (844) 
/opt/xchem-fragalysis-2/maxwin/BulkDock/SCRATCH/511024/C51598-P70

>  <fragmenstein_runtime>  (844) 
32.00669240951538

>  <fragmenstein_outcome>  (844) 
too moved

>  <fragmenstein_mode>  (844) 
expansion

>  <fragmenstein_error>  (844) 


$$$$
C51606-P103
     RDKit          3D

 38 41  0  0  0  0  0  0  0  0999 V2000
    7.7521   -3.0774   21.1959 O   0  0  0  0  0  0  0  0  0  0  0  0
    7.2864   -1.8502   20.7658 C   0  0  0  0  0  0  0  0  0  0  0  0
    5.7593   -1.1532   21.6517 N   0  0  0  0  0  0  0  0  0  0  0  0
    4.7429   -1.7176   23.2507 C   0  0  0  0  0  0  0  0  0  0  0  0
    4.3687   -0.2533   24.5253 C   0  0  0  0  0  0  0  0  0  0  0  0
    3.5085   -0.4185   25.8144 C   0  0  0  0  0  0  0  0  0  0  0  0
    4.2444   -1.3689   26.6625 C   0  0  0  0  0  0  0  0  0  0  0  0
    4.5533   -2.3708   25.7078 N   0  0  0  0  0  0  0  0  0  0  0  0
    3.5313   -3.0791   25.0763 C   0  0  0  0  0  0  0  0  0  0  0  0
    3.4289   -2.5595   23.6450 C   0  0  0  0  0  0  0  0  0  0  0  0
    5.5131   -2.1884   24.6043 C   0  0  0  0  0  0  0  0  0  0  0  0
    8.6465   -1.1904   19.4370 C   0  0  0  0  0  0  0  0  0  0  0  0
   10.1817   -2.5666   20.0530 C   0  0  0  0  0  0  0  0  0  0  0  0
   11.7989   -2.7418   18.7637 C   0  0  0  0  0  0  0  0  0  0  0  0
   13.4288   -3.6990   19.1124 Br  0  0  0  0  0  0  0  0  0  0  0  0
   11.5826   -1.7499   17.1998 C   0  0  0  0  0  0  0  0  0  0  0  0
   10.2202   -0.5803   16.7461 C   0  0  0  0  0  0  0  0  0  0  0  0
   10.0363    0.3674   15.7761 N   0  0  0  0  0  0  0  0  0  0  0  0
    9.1231    1.2981   16.2192 C   0  0  0  0  0  0  0  0  0  0  0  0
    8.4066    1.0310   17.2935 N   0  0  0  0  0  0  0  0  0  0  0  0
    8.7268   -0.1979   17.7793 C   0  0  0  0  0  0  0  0  0  0  0  0
    5.4979   -0.3043   21.1703 H   0  0  0  0  0  0  0  0  0  0  0  0
    5.1728    0.1350   25.0821 H   0  0  0  0  0  0  0  0  0  0  0  0
    3.9596    0.6872   24.1604 H   0  0  0  0  0  0  0  0  0  0  0  0
    3.3786    0.5428   26.3264 H   0  0  0  0  0  0  0  0  0  0  0  0
    2.5356   -0.8357   25.6505 H   0  0  0  0  0  0  0  0  0  0  0  0
    5.1478   -0.9369   27.1075 H   0  0  0  0  0  0  0  0  0  0  0  0
    3.6314   -1.7462   27.4882 H   0  0  0  0  0  0  0  0  0  0  0  0
    2.6849   -3.1399   25.7457 H   0  0  0  0  0  0  0  0  0  0  0  0
    3.9431   -4.0532   25.0562 H   0  0  0  0  0  0  0  0  0  0  0  0
    2.9519   -3.2343   22.9456 H   0  0  0  0  0  0  0  0  0  0  0  0
    2.6602   -1.8724   23.8465 H   0  0  0  0  0  0  0  0  0  0  0  0
    6.3187   -1.7634   25.1732 H   0  0  0  0  0  0  0  0  0  0  0  0
    6.0251   -3.0946   24.3464 H   0  0  0  0  0  0  0  0  0  0  0  0
   10.7121   -3.2372   20.9581 H   0  0  0  0  0  0  0  0  0  0  0  0
   12.4136   -1.7409   16.4879 H   0  0  0  0  0  0  0  0  0  0  0  0
   10.6381    0.4993   14.9753 H   0  0  0  0  0  0  0  0  0  0  0  0
    9.0276    2.2328   15.6818 H   0  0  0  0  0  0  0  0  0  0  0  0
  1  2  2  0
  2  3  1  0
  3  4  1  0
  4  5  1  0
  5  6  1  0
  6  7  1  0
  7  8  1  0
  8  9  1  0
  9 10  1  0
  8 11  1  0
  2 12  1  0
 12 13  2  0
 13 14  1  0
 14 15  1  0
 14 16  2  0
 16 17  1  0
 17 18  1  0
 18 19  1  0
 19 20  2  0
 20 21  1  0
 10  4  1  0
 21 12  1  0
 11  4  1  0
 21 17  2  0
  3 22  1  0
  5 23  1  0
  5 24  1  0
  6 25  1  0
  6 26  1  0
  7 27  1  0
  7 28  1  0
  9 29  1  0
  9 30  1  0
 10 31  1  0
 10 32  1  0
 11 33  1  0
 11 34  1  0
 13 35  1  0
 16 36  1  0
 18 37  1  0
 19 38  1  0
M  END
>  <Energy>  (845) 
1146.157813696381

>  <compound_id>  (845) 
51606

>  <target_id>  (845) 
1

>  <reference_id>  (845) 
103

>  <inspiration_ids>  (845) 
[103, 70]

>  <energy_score>  (845) 
1076.0458319079416

>  <distance_score>  (845) 
5.662401544224873

>  <path>  (845) 
/opt/xchem-fragalysis-2/maxwin/BulkDock/SCRATCH/511024/C51606-P103/C51606-P103.minimised.mol

>  <scratch_subdir>  (845) 
/opt/xchem-fragalysis-2/maxwin/BulkDock/SCRATCH/511024/C51606-P103

>  <fragmenstein_runtime>  (845) 
8.519641160964966

>  <fragmenstein_outcome>  (845) 
too moved

>  <fragmenstein_mode>  (845) 
expansion

>  <fragmenstein_error>  (845) 


$$$$
C51606-P70
     RDKit          3D

 38 41  0  0  0  0  0  0  0  0999 V2000
    7.5135   -0.9226   20.6921 O   0  0  0  0  0  0  0  0  0  0  0  0
    6.6658   -0.1079   20.5047 C   0  0  0  0  0  0  0  0  0  0  0  0
    5.0985   -0.0403   21.7273 N   0  0  0  0  0  0  0  0  0  0  0  0
    4.7177   -1.0737   23.4559 C   0  0  0  0  0  0  0  0  0  0  0  0
    4.0829    0.0261   24.9054 C   0  0  0  0  0  0  0  0  0  0  0  0
    3.4190   -0.4418   26.2181 C   0  0  0  0  0  0  0  0  0  0  0  0
    4.3441   -1.4211   26.8406 C   0  0  0  0  0  0  0  0  0  0  0  0
    4.6855   -2.3273   25.7967 N   0  0  0  0  0  0  0  0  0  0  0  0
    3.6443   -2.9441   25.0879 C   0  0  0  0  0  0  0  0  0  0  0  0
    3.5137   -2.2286   23.7567 C   0  0  0  0  0  0  0  0  0  0  0  0
    5.5556   -1.9469   24.6808 C   0  0  0  0  0  0  0  0  0  0  0  0
    7.2383    1.0486   19.0730 C   0  0  0  0  0  0  0  0  0  0  0  0
    8.0259    0.2615   17.7763 C   0  0  0  0  0  0  0  0  0  0  0  0
    8.3639    0.5419   16.4077 C   0  0  0  0  0  0  0  0  0  0  0  0
    9.1712   -0.7393   15.3076 Br  0  0  0  0  0  0  0  0  0  0  0  0
    8.6778    1.8468   16.1674 C   0  0  0  0  0  0  0  0  0  0  0  0
    8.1539    2.7871   17.0455 C   0  0  0  0  0  0  0  0  0  0  0  0
    8.2348    4.1473   16.8190 N   0  0  0  0  0  0  0  0  0  0  0  0
    7.3858    4.7700   17.6504 C   0  0  0  0  0  0  0  0  0  0  0  0
    6.9206    3.9209   18.5233 N   0  0  0  0  0  0  0  0  0  0  0  0
    7.4280    2.5681   18.2774 C   0  0  0  0  0  0  0  0  0  0  0  0
    4.5214    0.7508   21.4847 H   0  0  0  0  0  0  0  0  0  0  0  0
    4.9774    0.3660   25.4170 H   0  0  0  0  0  0  0  0  0  0  0  0
    3.4243    0.8479   24.5864 H   0  0  0  0  0  0  0  0  0  0  0  0
    3.2819    0.4173   26.8872 H   0  0  0  0  0  0  0  0  0  0  0  0
    2.4421   -0.8990   26.1156 H   0  0  0  0  0  0  0  0  0  0  0  0
    5.2382   -0.9433   27.2583 H   0  0  0  0  0  0  0  0  0  0  0  0
    3.8573   -1.9391   27.6750 H   0  0  0  0  0  0  0  0  0  0  0  0
    3.9741   -3.9256   24.8443 H   0  0  0  0  0  0  0  0  0  0  0  0
    2.7914   -3.0736   25.7467 H   0  0  0  0  0  0  0  0  0  0  0  0
    3.1787   -2.8973   22.9850 H   0  0  0  0  0  0  0  0  0  0  0  0
    2.6741   -1.6581   24.0641 H   0  0  0  0  0  0  0  0  0  0  0  0
    6.4586   -1.7542   25.2779 H   0  0  0  0  0  0  0  0  0  0  0  0
    5.8616   -2.8432   24.2106 H   0  0  0  0  0  0  0  0  0  0  0  0
    9.0977    0.5765   17.8832 H   0  0  0  0  0  0  0  0  0  0  0  0
    9.2766    2.1449   15.3150 H   0  0  0  0  0  0  0  0  0  0  0  0
    8.7187    4.5761   16.0434 H   0  0  0  0  0  0  0  0  0  0  0  0
    7.1573    5.8263   17.5989 H   0  0  0  0  0  0  0  0  0  0  0  0
  1  2  2  0
  2  3  1  0
  3  4  1  0
  4  5  1  0
  5  6  1  0
  6  7  1  0
  7  8  1  0
  8  9  1  0
  9 10  1  0
  8 11  1  0
  2 12  1  0
 12 13  2  0
 13 14  1  0
 14 15  1  0
 14 16  2  0
 16 17  1  0
 17 18  1  0
 18 19  1  0
 19 20  2  0
 20 21  1  0
 10  4  1  0
 21 12  1  0
 11  4  1  0
 21 17  2  0
  3 22  1  0
  5 23  1  0
  5 24  1  0
  6 25  1  0
  6 26  1  0
  7 27  1  0
  7 28  1  0
  9 29  1  0
  9 30  1  0
 10 31  1  0
 10 32  1  0
 11 33  1  0
 11 34  1  0
 13 35  1  0
 16 36  1  0
 18 37  1  0
 19 38  1  0
M  END
>  <Energy>  (846) 
671.2574533957112

>  <compound_id>  (846) 
51606

>  <target_id>  (846) 
1

>  <reference_id>  (846) 
70

>  <inspiration_ids>  (846) 
[103, 70]

>  <energy_score>  (846) 
601.1454716072703

>  <distance_score>  (846) 
6.662677349325728

>  <path>  (846) 
/opt/xchem-fragalysis-2/maxwin/BulkDock/SCRATCH/511024/C51606-P70/C51606-P70.minimised.mol

>  <scratch_subdir>  (846) 
/opt/xchem-fragalysis-2/maxwin/BulkDock/SCRATCH/511024/C51606-P70

>  <fragmenstein_runtime>  (846) 
9.31649136543274

>  <fragmenstein_outcome>  (846) 
too moved

>  <fragmenstein_mode>  (846) 
expansion

>  <fragmenstein_error>  (846) 


$$$$
C39589-P187
     RDKit          3D

 41 42  0  0  0  0  0  0  0  0999 V2000
   -8.1444  -16.8428   17.4094 C   0  0  0  0  0  0  0  0  0  0  0  0
   -7.1916  -17.6487   18.5521 O   0  0  0  0  0  0  0  0  0  0  0  0
   -5.8335  -17.6185   19.0461 C   0  0  0  0  0  0  0  0  0  0  0  0
   -4.8513  -17.4962   18.3347 O   0  0  0  0  0  0  0  0  0  0  0  0
   -5.7770  -17.6466   20.5716 C   0  0  0  0  0  0  0  0  0  0  0  0
   -6.7513  -19.0145   20.6835 S   0  0  0  0  0  0  0  0  0  0  0  0
   -7.3361  -18.7863   22.1221 N   0  0  0  0  0  0  0  0  0  0  0  0
   -6.5387  -17.8730   22.6096 C   0  0  0  0  0  0  0  0  0  0  0  0
   -5.1969  -16.8509   21.9378 C   0  0  0  0  0  0  0  0  0  0  0  0
   -4.7544  -15.2481   23.3012 C   0  0  0  0  0  0  0  0  0  0  0  0
   -5.3012  -13.4790   23.9573 O   0  0  0  0  0  0  0  0  0  0  0  0
   -4.6115  -12.0476   24.7778 C   0  0  0  0  0  0  0  0  0  0  0  0
   -3.8767  -12.4121   25.7227 O   0  0  0  0  0  0  0  0  0  0  0  0
   -4.5999  -10.0196   24.4510 C   0  0  0  0  0  0  0  0  0  0  0  0
   -3.3641   -8.7173   25.2984 N   0  0  0  0  0  0  0  0  0  0  0  0
   -3.4464   -7.7794   26.9421 C   0  0  0  0  0  0  0  0  0  0  0  0
   -4.4689   -7.8562   27.6444 O   0  0  0  0  0  0  0  0  0  0  0  0
   -2.0736   -6.7964   27.9382 C   0  0  0  0  0  0  0  0  0  0  0  0
   -1.1018   -7.6719   29.2382 C   0  0  0  0  0  0  0  0  0  0  0  0
    0.1002   -7.1002   29.9974 C   0  0  0  0  0  0  0  0  0  0  0  0
   -0.1757   -5.8014   30.4603 O   0  0  0  0  0  0  0  0  0  0  0  0
   -0.1383   -4.9012   29.3776 C   0  0  0  0  0  0  0  0  0  0  0  0
   -1.3483   -5.0537   28.4041 C   0  0  0  0  0  0  0  0  0  0  0  0
   -8.6827  -16.0752   17.9683 H   0  0  0  0  0  0  0  0  0  0  0  0
   -7.5891  -16.2326   16.6968 H   0  0  0  0  0  0  0  0  0  0  0  0
   -8.8844  -17.4866   16.9758 H   0  0  0  0  0  0  0  0  0  0  0  0
   -6.8135  -17.6569   23.5990 H   0  0  0  0  0  0  0  0  0  0  0  0
   -3.7838  -15.2591   23.8016 H   0  0  0  0  0  0  0  0  0  0  0  0
   -5.3310  -15.4624   24.2017 H   0  0  0  0  0  0  0  0  0  0  0  0
   -5.5923   -9.6370   24.7124 H   0  0  0  0  0  0  0  0  0  0  0  0
   -4.3157   -9.8743   23.4071 H   0  0  0  0  0  0  0  0  0  0  0  0
   -2.5426   -8.4776   24.8464 H   0  0  0  0  0  0  0  0  0  0  0  0
   -2.7538   -7.0353   28.7339 H   0  0  0  0  0  0  0  0  0  0  0  0
   -0.8418   -8.6834   28.9128 H   0  0  0  0  0  0  0  0  0  0  0  0
   -1.7687   -7.6758   30.1118 H   0  0  0  0  0  0  0  0  0  0  0  0
    0.2704   -7.7229   30.8835 H   0  0  0  0  0  0  0  0  0  0  0  0
    1.0423   -7.1224   29.4426 H   0  0  0  0  0  0  0  0  0  0  0  0
   -0.1643   -3.8901   29.8044 H   0  0  0  0  0  0  0  0  0  0  0  0
    0.8300   -4.9558   28.8649 H   0  0  0  0  0  0  0  0  0  0  0  0
   -1.9880   -4.3050   28.8675 H   0  0  0  0  0  0  0  0  0  0  0  0
   -1.0838   -4.4875   27.5080 H   0  0  0  0  0  0  0  0  0  0  0  0
  1  2  1  0
  2  3  1  0
  3  4  2  0
  3  5  1  0
  5  6  1  0
  6  7  1  0
  7  8  2  0
  8  9  1  0
  9 10  1  0
 10 11  1  0
 11 12  1  0
 12 13  2  0
 12 14  1  0
 14 15  1  0
 15 16  1  0
 16 17  2  0
 16 18  1  0
 18 19  1  0
 19 20  1  0
 20 21  1  0
 21 22  1  0
 22 23  1  0
  9  5  2  0
 23 18  1  0
  1 24  1  0
  1 25  1  0
  1 26  1  0
  8 27  1  0
 10 28  1  0
 10 29  1  0
 14 30  1  0
 14 31  1  0
 15 32  1  0
 18 33  1  0
 19 34  1  0
 19 35  1  0
 20 36  1  0
 20 37  1  0
 22 38  1  0
 22 39  1  0
 23 40  1  0
 23 41  1  0
M  END
>  <Energy>  (847) 
968.02045670857069

>  <compound_id>  (847) 
39589

>  <target_id>  (847) 
1

>  <reference_id>  (847) 
187

>  <inspiration_ids>  (847) 
[187, 28]

>  <energy_score>  (847) 
911.2211712272242

>  <distance_score>  (847) 
10.356133704652896

>  <path>  (847) 
/opt/xchem-fragalysis-2/maxwin/BulkDock/SCRATCH/511024/C39589-P187/C39589-P187.minimised.mol

>  <scratch_subdir>  (847) 
/opt/xchem-fragalysis-2/maxwin/BulkDock/SCRATCH/511024/C39589-P187

>  <fragmenstein_runtime>  (847) 
18.938546657562256

>  <fragmenstein_outcome>  (847) 
too moved

>  <fragmenstein_mode>  (847) 
expansion

>  <fragmenstein_error>  (847) 


$$$$
C39589-P28
     RDKit          3D

 41 42  0  0  0  0  0  0  0  0999 V2000
   -8.0047  -20.1320   18.1124 C   0  0  0  0  0  0  0  0  0  0  0  0
   -7.1563  -18.8093   18.3663 O   0  0  0  0  0  0  0  0  0  0  0  0
   -5.9523  -18.5246   19.0453 C   0  0  0  0  0  0  0  0  0  0  0  0
   -4.9055  -18.4719   18.4343 O   0  0  0  0  0  0  0  0  0  0  0  0
   -6.1205  -18.2188   20.4357 C   0  0  0  0  0  0  0  0  0  0  0  0
   -7.3114  -19.1431   20.9402 S   0  0  0  0  0  0  0  0  0  0  0  0
   -7.4900  -18.9678   22.4745 N   0  0  0  0  0  0  0  0  0  0  0  0
   -6.5885  -18.0718   22.6850 C   0  0  0  0  0  0  0  0  0  0  0  0
   -5.7535  -17.5562   21.6045 C   0  0  0  0  0  0  0  0  0  0  0  0
   -4.5136  -16.3423   22.0380 C   0  0  0  0  0  0  0  0  0  0  0  0
   -4.4122  -15.2870   23.6887 O   0  0  0  0  0  0  0  0  0  0  0  0
   -3.5545  -14.9210   25.1009 C   0  0  0  0  0  0  0  0  0  0  0  0
   -2.5062  -15.5688   25.2847 O   0  0  0  0  0  0  0  0  0  0  0  0
   -3.9109  -13.7143   26.6114 C   0  0  0  0  0  0  0  0  0  0  0  0
   -3.2976  -12.7811   28.1531 N   0  0  0  0  0  0  0  0  0  0  0  0
   -2.2550  -11.3881   28.3394 C   0  0  0  0  0  0  0  0  0  0  0  0
   -1.8445  -10.9320   27.3670 O   0  0  0  0  0  0  0  0  0  0  0  0
   -1.4264  -10.4414   29.8929 C   0  0  0  0  0  0  0  0  0  0  0  0
   -1.5640   -9.6954   31.3083 C   0  0  0  0  0  0  0  0  0  0  0  0
   -1.6804   -8.1655   31.5120 C   0  0  0  0  0  0  0  0  0  0  0  0
   -1.0436   -7.4550   30.4762 O   0  0  0  0  0  0  0  0  0  0  0  0
    0.2021   -8.0758   30.2328 C   0  0  0  0  0  0  0  0  0  0  0  0
   -0.0209   -9.3594   29.3880 C   0  0  0  0  0  0  0  0  0  0  0  0
   -8.8872  -20.0108   17.5034 H   0  0  0  0  0  0  0  0  0  0  0  0
   -8.6922  -20.4098   18.9367 H   0  0  0  0  0  0  0  0  0  0  0  0
   -7.3831  -20.9288   17.7487 H   0  0  0  0  0  0  0  0  0  0  0  0
   -6.5511  -17.7795   23.6914 H   0  0  0  0  0  0  0  0  0  0  0  0
   -3.8347  -17.0005   22.2952 H   0  0  0  0  0  0  0  0  0  0  0  0
   -3.8106  -16.1796   21.1864 H   0  0  0  0  0  0  0  0  0  0  0  0
   -3.1382  -13.1040   26.1319 H   0  0  0  0  0  0  0  0  0  0  0  0
   -3.8120  -14.6051   27.2447 H   0  0  0  0  0  0  0  0  0  0  0  0
   -3.6520  -13.0260   29.0648 H   0  0  0  0  0  0  0  0  0  0  0  0
   -1.5803   -9.6028   29.2822 H   0  0  0  0  0  0  0  0  0  0  0  0
   -0.6529   -9.8504   31.8284 H   0  0  0  0  0  0  0  0  0  0  0  0
   -2.2833  -10.0436   31.9633 H   0  0  0  0  0  0  0  0  0  0  0  0
   -2.7253   -7.8754   31.5546 H   0  0  0  0  0  0  0  0  0  0  0  0
   -1.2494   -7.8707   32.4781 H   0  0  0  0  0  0  0  0  0  0  0  0
    0.8725   -7.3704   29.7415 H   0  0  0  0  0  0  0  0  0  0  0  0
    0.6948   -8.2480   31.1890 H   0  0  0  0  0  0  0  0  0  0  0  0
   -0.2319   -9.0275   28.3700 H   0  0  0  0  0  0  0  0  0  0  0  0
    0.9264   -9.8384   29.2458 H   0  0  0  0  0  0  0  0  0  0  0  0
  1  2  1  0
  2  3  1  0
  3  4  2  0
  3  5  1  0
  5  6  1  0
  6  7  1  0
  7  8  2  0
  8  9  1  0
  9 10  1  0
 10 11  1  0
 11 12  1  0
 12 13  2  0
 12 14  1  0
 14 15  1  0
 15 16  1  0
 16 17  2  0
 16 18  1  0
 18 19  1  0
 19 20  1  0
 20 21  1  0
 21 22  1  0
 22 23  1  0
  9  5  2  0
 23 18  1  0
  1 24  1  0
  1 25  1  0
  1 26  1  0
  8 27  1  0
 10 28  1  0
 10 29  1  0
 14 30  1  0
 14 31  1  0
 15 32  1  0
 18 33  1  0
 19 34  1  0
 19 35  1  0
 20 36  1  0
 20 37  1  0
 22 38  1  0
 22 39  1  0
 23 40  1  0
 23 41  1  0
M  END
>  <Energy>  (848) 
673.99421359683288

>  <compound_id>  (848) 
39589

>  <target_id>  (848) 
1

>  <reference_id>  (848) 
28

>  <inspiration_ids>  (848) 
[187, 28]

>  <energy_score>  (848) 
617.1949281154778

>  <distance_score>  (848) 
10.512069958461367

>  <path>  (848) 
/opt/xchem-fragalysis-2/maxwin/BulkDock/SCRATCH/511024/C39589-P28/C39589-P28.minimised.mol

>  <scratch_subdir>  (848) 
/opt/xchem-fragalysis-2/maxwin/BulkDock/SCRATCH/511024/C39589-P28

>  <fragmenstein_runtime>  (848) 
13.722972869873047

>  <fragmenstein_outcome>  (848) 
too moved

>  <fragmenstein_mode>  (848) 
expansion

>  <fragmenstein_error>  (848) 


$$$$
C51905-P187
     RDKit          3D

 43 44  0  0  0  0  0  0  0  0999 V2000
   -1.9265  -15.1177   28.5468 C   0  0  0  0  0  0  0  0  0  0  0  0
   -2.8951  -14.4442   29.5315 C   0  0  0  0  0  0  0  0  0  0  0  0
   -3.9916  -15.5771   29.8372 C   0  0  0  0  0  0  0  0  0  0  0  0
   -4.6041  -16.4397   28.7005 C   0  0  0  0  0  0  0  0  0  0  0  0
   -4.1358  -17.8351   28.4273 N   0  0  0  0  0  0  0  0  0  0  0  0
   -4.8914  -19.0633   28.1208 C   0  0  0  0  0  0  0  0  0  0  0  0
   -6.0786  -19.2666   28.0935 O   0  0  0  0  0  0  0  0  0  0  0  0
   -3.9750  -20.2993   27.6432 C   0  0  0  0  0  0  0  0  0  0  0  0
   -3.8541  -20.5117   26.2205 O   0  0  0  0  0  0  0  0  0  0  0  0
   -4.2185  -21.7163   25.6534 C   0  0  0  0  0  0  0  0  0  0  0  0
   -3.8744  -22.0911   24.3064 C   0  0  0  0  0  0  0  0  0  0  0  0
   -4.4703  -23.2809   23.9345 C   0  0  0  0  0  0  0  0  0  0  0  0
   -5.3356  -23.8746   25.2823 S   0  0  0  0  0  0  0  0  0  0  0  0
   -4.9846  -22.5889   26.3001 N   0  0  0  0  0  0  0  0  0  0  0  0
   -3.5871  -12.9950   29.1189 N   0  0  0  0  0  0  0  0  0  0  0  0
   -2.6997  -12.1032   27.6130 C   0  0  0  0  0  0  0  0  0  0  0  0
   -3.1219  -12.5578   29.1767 C   0  0  0  0  0  0  0  0  0  0  0  0
   -3.6922  -13.4090   27.5633 O   0  0  0  0  0  0  0  0  0  0  0  0
   -1.7577  -11.0470   29.5615 C   0  0  0  0  0  0  0  0  0  0  0  0
   -0.6767   -9.6760   29.0053 C   0  0  0  0  0  0  0  0  0  0  0  0
   -1.1560   -8.7676   29.9867 O   0  0  0  0  0  0  0  0  0  0  0  0
   -1.5145   -9.8365   30.8908 C   0  0  0  0  0  0  0  0  0  0  0  0
   -2.4347  -15.6284   27.7251 H   0  0  0  0  0  0  0  0  0  0  0  0
   -1.3321  -15.8788   29.0647 H   0  0  0  0  0  0  0  0  0  0  0  0
   -1.2625  -14.4550   28.0331 H   0  0  0  0  0  0  0  0  0  0  0  0
   -2.5001  -14.3840   30.5434 H   0  0  0  0  0  0  0  0  0  0  0  0
   -3.5522  -16.2743   30.5641 H   0  0  0  0  0  0  0  0  0  0  0  0
   -4.8335  -15.0953   30.3479 H   0  0  0  0  0  0  0  0  0  0  0  0
   -4.5157  -15.8911   27.7633 H   0  0  0  0  0  0  0  0  0  0  0  0
   -5.6761  -16.5460   28.9059 H   0  0  0  0  0  0  0  0  0  0  0  0
   -3.1498  -18.0056   28.2732 H   0  0  0  0  0  0  0  0  0  0  0  0
   -4.3374  -21.1860   28.1763 H   0  0  0  0  0  0  0  0  0  0  0  0
   -2.9603  -20.1196   28.0164 H   0  0  0  0  0  0  0  0  0  0  0  0
   -3.2485  -21.5101   23.6468 H   0  0  0  0  0  0  0  0  0  0  0  0
   -4.4234  -23.8065   22.9916 H   0  0  0  0  0  0  0  0  0  0  0  0
   -2.0484  -11.2641   27.6911 H   0  0  0  0  0  0  0  0  0  0  0  0
   -2.2259  -12.8046   26.8291 H   0  0  0  0  0  0  0  0  0  0  0  0
   -3.4866  -11.8123   26.9223 H   0  0  0  0  0  0  0  0  0  0  0  0
   -1.0502  -11.5627   30.1814 H   0  0  0  0  0  0  0  0  0  0  0  0
    0.4013   -9.7515   29.1918 H   0  0  0  0  0  0  0  0  0  0  0  0
   -0.6155   -9.2713   28.0181 H   0  0  0  0  0  0  0  0  0  0  0  0
   -0.6655   -9.9138   31.5287 H   0  0  0  0  0  0  0  0  0  0  0  0
   -2.2957   -9.4257   31.5154 H   0  0  0  0  0  0  0  0  0  0  0  0
  1  2  1  0
  2  3  1  0
  3  4  1  0
  4  5  1  0
  5  6  1  0
  6  7  2  0
  6  8  1  0
  8  9  1  0
  9 10  1  0
 10 11  1  0
 11 12  2  0
 12 13  1  0
 13 14  1  0
  2 15  1  0
 15 16  1  0
 15 17  1  0
 17 18  2  0
 17 19  1  0
 19 20  1  0
 20 21  1  0
 21 22  1  0
 14 10  2  0
 22 19  1  0
  1 23  1  0
  1 24  1  0
  1 25  1  0
  2 26  1  0
  3 27  1  0
  3 28  1  0
  4 29  1  0
  4 30  1  0
  5 31  1  0
  8 32  1  0
  8 33  1  0
 11 34  1  0
 12 35  1  0
 16 36  1  0
 16 37  1  0
 16 38  1  0
 19 39  1  0
 20 40  1  0
 20 41  1  0
 22 42  1  0
 22 43  1  0
M  END
>  <Energy>  (849) 
1860.8600197369512

>  <compound_id>  (849) 
51905

>  <target_id>  (849) 
1

>  <reference_id>  (849) 
187

>  <inspiration_ids>  (849) 
[187, 28]

>  <energy_score>  (849) 
1823.2405013963441

>  <distance_score>  (849) 
13.404956622621766

>  <path>  (849) 
/opt/xchem-fragalysis-2/maxwin/BulkDock/SCRATCH/511024/C51905-P187/C51905-P187.minimised.mol

>  <scratch_subdir>  (849) 
/opt/xchem-fragalysis-2/maxwin/BulkDock/SCRATCH/511024/C51905-P187

>  <fragmenstein_runtime>  (849) 
19.33051562309265

>  <fragmenstein_outcome>  (849) 
too moved

>  <fragmenstein_mode>  (849) 
expansion

>  <fragmenstein_error>  (849) 


$$$$
C51905-P28
     RDKit          3D

 43 44  0  0  0  0  0  0  0  0999 V2000
   -2.7266  -10.0477   21.2158 C   0  0  0  0  0  0  0  0  0  0  0  0
   -2.8925   -9.3457   19.8274 C   0  0  0  0  0  0  0  0  0  0  0  0
   -3.1544  -10.3014   18.5830 C   0  0  0  0  0  0  0  0  0  0  0  0
   -4.5773  -10.8823   18.3857 C   0  0  0  0  0  0  0  0  0  0  0  0
   -4.7366  -11.7678   17.2044 N   0  0  0  0  0  0  0  0  0  0  0  0
   -5.9360  -12.1967   16.4828 C   0  0  0  0  0  0  0  0  0  0  0  0
   -7.0850  -11.8756   16.6172 O   0  0  0  0  0  0  0  0  0  0  0  0
   -5.6058  -13.3456   15.4091 C   0  0  0  0  0  0  0  0  0  0  0  0
   -6.8063  -13.8578   14.7972 O   0  0  0  0  0  0  0  0  0  0  0  0
   -6.7255  -14.9614   13.9898 C   0  0  0  0  0  0  0  0  0  0  0  0
   -7.8825  -15.5956   13.4250 C   0  0  0  0  0  0  0  0  0  0  0  0
   -7.5359  -16.6805   12.6454 C   0  0  0  0  0  0  0  0  0  0  0  0
   -5.8283  -16.7672   12.5989 S   0  0  0  0  0  0  0  0  0  0  0  0
   -5.5518  -15.4843   13.6452 N   0  0  0  0  0  0  0  0  0  0  0  0
   -2.0724   -7.9935   19.6040 N   0  0  0  0  0  0  0  0  0  0  0  0
   -1.0309   -8.9482   19.1510 C   0  0  0  0  0  0  0  0  0  0  0  0
   -2.1412   -7.1749   20.7767 C   0  0  0  0  0  0  0  0  0  0  0  0
   -1.4136   -7.1213   21.7385 O   0  0  0  0  0  0  0  0  0  0  0  0
   -3.3819   -6.2569   20.7372 C   0  0  0  0  0  0  0  0  0  0  0  0
   -3.8353   -5.6307   22.0727 C   0  0  0  0  0  0  0  0  0  0  0  0
   -4.0479   -4.3511   21.4075 O   0  0  0  0  0  0  0  0  0  0  0  0
   -3.1818   -4.7957   20.3261 C   0  0  0  0  0  0  0  0  0  0  0  0
   -1.7261  -10.4514   21.3841 H   0  0  0  0  0  0  0  0  0  0  0  0
   -2.9606   -9.3612   22.0341 H   0  0  0  0  0  0  0  0  0  0  0  0
   -3.4306  -10.8837   21.2901 H   0  0  0  0  0  0  0  0  0  0  0  0
   -3.8945   -8.9035   19.9490 H   0  0  0  0  0  0  0  0  0  0  0  0
   -2.9741   -9.7392   17.6572 H   0  0  0  0  0  0  0  0  0  0  0  0
   -2.4383  -11.1329   18.6052 H   0  0  0  0  0  0  0  0  0  0  0  0
   -5.3131  -10.0776   18.2836 H   0  0  0  0  0  0  0  0  0  0  0  0
   -4.8637  -11.4765   19.2587 H   0  0  0  0  0  0  0  0  0  0  0  0
   -3.9208  -12.1844   16.7686 H   0  0  0  0  0  0  0  0  0  0  0  0
   -5.0863  -14.1506   15.9406 H   0  0  0  0  0  0  0  0  0  0  0  0
   -4.9620  -12.9055   14.6400 H   0  0  0  0  0  0  0  0  0  0  0  0
   -8.8964  -15.2631   13.5903 H   0  0  0  0  0  0  0  0  0  0  0  0
   -8.1679  -17.3666   12.1010 H   0  0  0  0  0  0  0  0  0  0  0  0
   -0.6940   -9.7394   19.8281 H   0  0  0  0  0  0  0  0  0  0  0  0
   -1.1073   -9.2297   18.0970 H   0  0  0  0  0  0  0  0  0  0  0  0
   -0.1336   -8.3082   19.1377 H   0  0  0  0  0  0  0  0  0  0  0  0
   -4.2299   -6.7071   20.2050 H   0  0  0  0  0  0  0  0  0  0  0  0
   -4.7649   -6.0355   22.4799 H   0  0  0  0  0  0  0  0  0  0  0  0
   -3.0846   -5.5326   22.8617 H   0  0  0  0  0  0  0  0  0  0  0  0
   -3.5841   -4.5286   19.3453 H   0  0  0  0  0  0  0  0  0  0  0  0
   -2.1704   -4.3908   20.4363 H   0  0  0  0  0  0  0  0  0  0  0  0
  1  2  1  0
  2  3  1  0
  3  4  1  0
  4  5  1  0
  5  6  1  0
  6  7  2  0
  6  8  1  0
  8  9  1  0
  9 10  1  0
 10 11  1  0
 11 12  2  0
 12 13  1  0
 13 14  1  0
  2 15  1  0
 15 16  1  0
 15 17  1  0
 17 18  2  0
 17 19  1  0
 19 20  1  0
 20 21  1  0
 21 22  1  0
 14 10  2  0
 22 19  1  0
  1 23  1  0
  1 24  1  0
  1 25  1  0
  2 26  1  0
  3 27  1  0
  3 28  1  0
  4 29  1  0
  4 30  1  0
  5 31  1  0
  8 32  1  0
  8 33  1  0
 11 34  1  0
 12 35  1  0
 16 36  1  0
 16 37  1  0
 16 38  1  0
 19 39  1  0
 20 40  1  0
 20 41  1  0
 22 42  1  0
 22 43  1  0
M  END
>  <Energy>  (850) 
76.499467052434653

>  <compound_id>  (850) 
51905

>  <target_id>  (850) 
1

>  <reference_id>  (850) 
28

>  <inspiration_ids>  (850) 
[187, 28]

>  <energy_score>  (850) 
38.879948711814166

>  <distance_score>  (850) 
14.257764828916837

>  <path>  (850) 
/opt/xchem-fragalysis-2/maxwin/BulkDock/SCRATCH/511024/C51905-P28/C51905-P28.minimised.mol

>  <scratch_subdir>  (850) 
/opt/xchem-fragalysis-2/maxwin/BulkDock/SCRATCH/511024/C51905-P28

>  <fragmenstein_runtime>  (850) 
23.373088836669922

>  <fragmenstein_outcome>  (850) 
too moved

>  <fragmenstein_mode>  (850) 
expansion

>  <fragmenstein_error>  (850) 


$$$$
C51906-P187
     RDKit          3D

 42 43  0  0  0  0  0  0  0  0999 V2000
   -9.8111  -15.8248   15.3899 N   0  0  0  0  0  0  0  0  0  0  0  0
   -9.0651  -14.5994   15.8849 C   0  0  0  0  0  0  0  0  0  0  0  0
   -9.3419  -13.8676   16.7556 O   0  0  0  0  0  0  0  0  0  0  0  0
   -7.9207  -14.5660   14.9314 N   0  0  0  0  0  0  0  0  0  0  0  0
   -6.7776  -13.6870   14.8617 C   0  0  0  0  0  0  0  0  0  0  0  0
   -5.6900  -14.3656   14.0027 C   0  0  0  0  0  0  0  0  0  0  0  0
   -6.0208  -15.1525   13.1614 O   0  0  0  0  0  0  0  0  0  0  0  0
   -4.3917  -13.9068   14.3948 N   0  0  0  0  0  0  0  0  0  0  0  0
   -3.0742  -14.3148   13.9691 C   0  0  0  0  0  0  0  0  0  0  0  0
   -2.6133  -15.6765   14.5505 C   0  0  0  0  0  0  0  0  0  0  0  0
   -3.4222  -16.7921   13.9938 N   0  0  0  0  0  0  0  0  0  0  0  0
   -3.0623  -18.1482   13.6656 C   0  0  0  0  0  0  0  0  0  0  0  0
   -2.0382  -18.7452   13.8315 O   0  0  0  0  0  0  0  0  0  0  0  0
   -4.2086  -18.9258   13.0350 C   0  0  0  0  0  0  0  0  0  0  0  0
   -4.2102  -20.3690   12.8430 C   0  0  0  0  0  0  0  0  0  0  0  0
   -5.3929  -20.8212   12.2963 C   0  0  0  0  0  0  0  0  0  0  0  0
   -6.3934  -19.4703   12.0180 S   0  0  0  0  0  0  0  0  0  0  0  0
   -5.3394  -18.3296   12.6214 N   0  0  0  0  0  0  0  0  0  0  0  0
   -2.4634  -15.7215   16.1187 C   0  0  0  0  0  0  0  0  0  0  0  0
   -1.4627  -14.7181   16.7318 C   0  0  0  0  0  0  0  0  0  0  0  0
   -2.2726  -13.8516   17.6830 C   0  0  0  0  0  0  0  0  0  0  0  0
   -3.6273  -14.0163   17.2443 O   0  0  0  0  0  0  0  0  0  0  0  0
   -3.7386  -15.3984   16.8642 C   0  0  0  0  0  0  0  0  0  0  0  0
   -9.2385  -16.3086   14.6878 H   0  0  0  0  0  0  0  0  0  0  0  0
   -9.3590  -16.1739   14.5361 H   0  0  0  0  0  0  0  0  0  0  0  0
   -7.9364  -15.3872   14.3661 H   0  0  0  0  0  0  0  0  0  0  0  0
   -6.4356  -13.4906   15.8804 H   0  0  0  0  0  0  0  0  0  0  0  0
   -7.0871  -12.7515   14.3886 H   0  0  0  0  0  0  0  0  0  0  0  0
   -4.4962  -13.1723   15.0915 H   0  0  0  0  0  0  0  0  0  0  0  0
   -2.3812  -13.5144   14.2432 H   0  0  0  0  0  0  0  0  0  0  0  0
   -3.1000  -14.3817   12.8754 H   0  0  0  0  0  0  0  0  0  0  0  0
   -1.6047  -15.8587   14.1549 H   0  0  0  0  0  0  0  0  0  0  0  0
   -4.3598  -16.5981   13.6281 H   0  0  0  0  0  0  0  0  0  0  0  0
   -3.3917  -21.0133   13.1372 H   0  0  0  0  0  0  0  0  0  0  0  0
   -5.6967  -21.8322   12.0691 H   0  0  0  0  0  0  0  0  0  0  0  0
   -2.1526  -16.7444   16.3644 H   0  0  0  0  0  0  0  0  0  0  0  0
   -0.9889  -14.1044   15.9593 H   0  0  0  0  0  0  0  0  0  0  0  0
   -0.6539  -15.2272   17.2670 H   0  0  0  0  0  0  0  0  0  0  0  0
   -1.9929  -12.7959   17.6370 H   0  0  0  0  0  0  0  0  0  0  0  0
   -2.1906  -14.2013   18.7179 H   0  0  0  0  0  0  0  0  0  0  0  0
   -4.6624  -15.5686   16.3132 H   0  0  0  0  0  0  0  0  0  0  0  0
   -3.7862  -15.9995   17.7717 H   0  0  0  0  0  0  0  0  0  0  0  0
  1  2  1  0
  2  3  2  0
  2  4  1  0
  4  5  1  0
  5  6  1  0
  6  7  2  0
  6  8  1  0
  8  9  1  0
  9 10  1  0
 10 11  1  0
 11 12  1  0
 12 13  2  0
 12 14  1  0
 14 15  1  0
 15 16  2  0
 16 17  1  0
 17 18  1  0
 10 19  1  0
 19 20  1  0
 20 21  1  0
 21 22  1  0
 22 23  1  0
 18 14  2  0
 23 19  1  0
  1 24  1  0
  1 25  1  0
  4 26  1  0
  5 27  1  0
  5 28  1  0
  8 29  1  0
  9 30  1  0
  9 31  1  0
 10 32  1  0
 11 33  1  0
 15 34  1  0
 16 35  1  0
 19 36  1  0
 20 37  1  0
 20 38  1  0
 21 39  1  0
 21 40  1  0
 23 41  1  0
 23 42  1  0
M  END
>  <Energy>  (851) 
150.42976410342513

>  <compound_id>  (851) 
51906

>  <target_id>  (851) 
1

>  <reference_id>  (851) 
187

>  <inspiration_ids>  (851) 
[187, 28]

>  <energy_score>  (851) 
142.24967836193383

>  <distance_score>  (851) 
17.517665270969644

>  <path>  (851) 
/opt/xchem-fragalysis-2/maxwin/BulkDock/SCRATCH/511024/C51906-P187/C51906-P187.minimised.mol

>  <scratch_subdir>  (851) 
/opt/xchem-fragalysis-2/maxwin/BulkDock/SCRATCH/511024/C51906-P187

>  <fragmenstein_runtime>  (851) 
25.592455625534058

>  <fragmenstein_outcome>  (851) 
too moved

>  <fragmenstein_mode>  (851) 
expansion

>  <fragmenstein_error>  (851) 


$$$$
C51906-P28
     RDKit          3D

 42 43  0  0  0  0  0  0  0  0999 V2000
   -0.6211   -8.9837   30.9255 N   0  0  0  0  0  0  0  0  0  0  0  0
   -0.7620   -9.4835   29.5170 C   0  0  0  0  0  0  0  0  0  0  0  0
   -0.3213   -9.0559   28.5174 O   0  0  0  0  0  0  0  0  0  0  0  0
   -1.7757  -10.6997   29.7346 N   0  0  0  0  0  0  0  0  0  0  0  0
   -2.6798  -11.7337   28.5175 C   0  0  0  0  0  0  0  0  0  0  0  0
   -2.9138  -12.5196   26.8371 C   0  0  0  0  0  0  0  0  0  0  0  0
   -3.1420  -11.7203   25.9956 O   0  0  0  0  0  0  0  0  0  0  0  0
   -2.8392  -13.9198   26.7636 N   0  0  0  0  0  0  0  0  0  0  0  0
   -3.1146  -14.8409   25.6501 C   0  0  0  0  0  0  0  0  0  0  0  0
   -4.6805  -15.0976   25.5511 C   0  0  0  0  0  0  0  0  0  0  0  0
   -5.2534  -15.6757   23.9908 N   0  0  0  0  0  0  0  0  0  0  0  0
   -6.1790  -17.3880   23.4545 C   0  0  0  0  0  0  0  0  0  0  0  0
   -6.5778  -18.2935   24.1289 O   0  0  0  0  0  0  0  0  0  0  0  0
   -6.3547  -17.7582   21.8794 C   0  0  0  0  0  0  0  0  0  0  0  0
   -5.4179  -17.4175   20.8836 C   0  0  0  0  0  0  0  0  0  0  0  0
   -5.5066  -18.0528   19.6751 C   0  0  0  0  0  0  0  0  0  0  0  0
   -6.6796  -19.1190   19.9099 S   0  0  0  0  0  0  0  0  0  0  0  0
   -7.1548  -18.7111   21.4342 N   0  0  0  0  0  0  0  0  0  0  0  0
   -5.5574  -13.8127   25.9367 C   0  0  0  0  0  0  0  0  0  0  0  0
   -5.7913  -13.5308   27.4282 C   0  0  0  0  0  0  0  0  0  0  0  0
   -6.8782  -12.4777   27.3749 C   0  0  0  0  0  0  0  0  0  0  0  0
   -7.7716  -12.9338   26.3600 O   0  0  0  0  0  0  0  0  0  0  0  0
   -7.0136  -13.7535   25.4535 C   0  0  0  0  0  0  0  0  0  0  0  0
   -1.2314   -9.5302   31.5417 H   0  0  0  0  0  0  0  0  0  0  0  0
   -1.0392   -9.6625   31.5692 H   0  0  0  0  0  0  0  0  0  0  0  0
   -1.8869  -10.8592   30.6803 H   0  0  0  0  0  0  0  0  0  0  0  0
   -2.8193  -12.6401   29.0807 H   0  0  0  0  0  0  0  0  0  0  0  0
   -1.9683  -11.2072   27.8863 H   0  0  0  0  0  0  0  0  0  0  0  0
   -2.7061  -14.2891   27.6950 H   0  0  0  0  0  0  0  0  0  0  0  0
   -2.5356  -15.7597   25.7874 H   0  0  0  0  0  0  0  0  0  0  0  0
   -2.7858  -14.3479   24.7294 H   0  0  0  0  0  0  0  0  0  0  0  0
   -4.5228  -15.7411   26.4097 H   0  0  0  0  0  0  0  0  0  0  0  0
   -4.9598  -15.1344   23.1872 H   0  0  0  0  0  0  0  0  0  0  0  0
   -4.5819  -16.7857   21.1647 H   0  0  0  0  0  0  0  0  0  0  0  0
   -4.9338  -17.9734   18.7686 H   0  0  0  0  0  0  0  0  0  0  0  0
   -5.0857  -12.9468   25.4625 H   0  0  0  0  0  0  0  0  0  0  0  0
   -4.9432  -13.1915   28.0116 H   0  0  0  0  0  0  0  0  0  0  0  0
   -6.1823  -14.4276   27.9228 H   0  0  0  0  0  0  0  0  0  0  0  0
   -6.5167  -11.5104   27.0340 H   0  0  0  0  0  0  0  0  0  0  0  0
   -7.4118  -12.3618   28.3215 H   0  0  0  0  0  0  0  0  0  0  0  0
   -7.5325  -14.7060   25.4547 H   0  0  0  0  0  0  0  0  0  0  0  0
   -7.0730  -13.2971   24.4652 H   0  0  0  0  0  0  0  0  0  0  0  0
  1  2  1  0
  2  3  2  0
  2  4  1  0
  4  5  1  0
  5  6  1  0
  6  7  2  0
  6  8  1  0
  8  9  1  0
  9 10  1  0
 10 11  1  0
 11 12  1  0
 12 13  2  0
 12 14  1  0
 14 15  1  0
 15 16  2  0
 16 17  1  0
 17 18  1  0
 10 19  1  0
 19 20  1  0
 20 21  1  0
 21 22  1  0
 22 23  1  0
 18 14  2  0
 23 19  1  0
  1 24  1  0
  1 25  1  0
  4 26  1  0
  5 27  1  0
  5 28  1  0
  8 29  1  0
  9 30  1  0
  9 31  1  0
 10 32  1  0
 11 33  1  0
 15 34  1  0
 16 35  1  0
 19 36  1  0
 20 37  1  0
 20 38  1  0
 21 39  1  0
 21 40  1  0
 23 41  1  0
 23 42  1  0
M  END
>  <Energy>  (852) 
502.30386778421843

>  <compound_id>  (852) 
51906

>  <target_id>  (852) 
1

>  <reference_id>  (852) 
28

>  <inspiration_ids>  (852) 
[187, 28]

>  <energy_score>  (852) 
494.12378204272653

>  <distance_score>  (852) 
11.354379755750681

>  <path>  (852) 
/opt/xchem-fragalysis-2/maxwin/BulkDock/SCRATCH/511024/C51906-P28/C51906-P28.minimised.mol

>  <scratch_subdir>  (852) 
/opt/xchem-fragalysis-2/maxwin/BulkDock/SCRATCH/511024/C51906-P28

>  <fragmenstein_runtime>  (852) 
25.141961574554443

>  <fragmenstein_outcome>  (852) 
too moved

>  <fragmenstein_mode>  (852) 
expansion

>  <fragmenstein_error>  (852) 


$$$$
C51907-P187
     RDKit          3D

 44 46  0  0  0  0  0  0  0  0999 V2000
   -4.7972  -14.4140   28.5216 C   0  0  0  0  0  0  0  0  0  0  0  0
   -4.8451  -13.0472   28.0146 N   0  0  0  0  0  0  0  0  0  0  0  0
   -6.0632  -13.8570   26.7805 C   0  0  0  0  0  0  0  0  0  0  0  0
   -7.8457  -14.7511   26.7947 C   0  0  0  0  0  0  0  0  0  0  0  0
   -8.6495  -13.6863   27.3980 O   0  0  0  0  0  0  0  0  0  0  0  0
   -9.1699  -15.7296   25.5770 C   0  0  0  0  0  0  0  0  0  0  0  0
  -10.3947  -17.1630   24.9935 N   0  0  0  0  0  0  0  0  0  0  0  0
  -10.1510  -18.6147   23.6796 C   0  0  0  0  0  0  0  0  0  0  0  0
   -9.1539  -18.7089   22.9585 O   0  0  0  0  0  0  0  0  0  0  0  0
  -11.2418  -20.1588   23.4473 C   0  0  0  0  0  0  0  0  0  0  0  0
  -12.4403  -20.6772   24.1517 C   0  0  0  0  0  0  0  0  0  0  0  0
  -12.9471  -21.8260   23.5671 C   0  0  0  0  0  0  0  0  0  0  0  0
  -11.9566  -22.2497   22.2560 S   0  0  0  0  0  0  0  0  0  0  0  0
  -10.8839  -21.0284   22.4635 N   0  0  0  0  0  0  0  0  0  0  0  0
   -3.1977  -12.4127   27.7937 C   0  0  0  0  0  0  0  0  0  0  0  0
   -2.6154  -12.5388   26.7393 O   0  0  0  0  0  0  0  0  0  0  0  0
   -2.0812  -11.2741   29.0751 C   0  0  0  0  0  0  0  0  0  0  0  0
   -0.8592   -9.7294   28.8035 C   0  0  0  0  0  0  0  0  0  0  0  0
   -0.7619   -8.8499   30.0243 C   0  0  0  0  0  0  0  0  0  0  0  0
   -1.1055   -7.3950   30.0967 C   0  0  0  0  0  0  0  0  0  0  0  0
    0.3014   -7.7878   30.2907 C   0  0  0  0  0  0  0  0  0  0  0  0
   -1.2237   -9.7506   31.0402 C   0  0  0  0  0  0  0  0  0  0  0  0
   -1.2285  -11.0954   30.4091 O   0  0  0  0  0  0  0  0  0  0  0  0
   -5.7593  -14.7285   28.9370 H   0  0  0  0  0  0  0  0  0  0  0  0
   -4.3795  -15.1159   27.7910 H   0  0  0  0  0  0  0  0  0  0  0  0
   -4.0699  -14.4314   29.3365 H   0  0  0  0  0  0  0  0  0  0  0  0
   -5.4137  -14.3990   26.0817 H   0  0  0  0  0  0  0  0  0  0  0  0
   -6.3394  -12.9295   26.2596 H   0  0  0  0  0  0  0  0  0  0  0  0
   -7.7195  -15.4693   27.6181 H   0  0  0  0  0  0  0  0  0  0  0  0
   -8.0527  -13.0987   27.9004 H   0  0  0  0  0  0  0  0  0  0  0  0
   -8.8967  -16.4848   26.3126 H   0  0  0  0  0  0  0  0  0  0  0  0
   -9.9798  -15.4405   26.2751 H   0  0  0  0  0  0  0  0  0  0  0  0
  -11.3585  -17.2336   25.4291 H   0  0  0  0  0  0  0  0  0  0  0  0
  -12.9049  -20.1751   24.9875 H   0  0  0  0  0  0  0  0  0  0  0  0
  -13.8212  -22.3965   23.8435 H   0  0  0  0  0  0  0  0  0  0  0  0
   -2.9823  -11.2175   29.6350 H   0  0  0  0  0  0  0  0  0  0  0  0
   -0.6672   -9.2762   27.8572 H   0  0  0  0  0  0  0  0  0  0  0  0
    0.2237   -9.9444   28.9084 H   0  0  0  0  0  0  0  0  0  0  0  0
   -1.6127   -7.0395   30.9851 H   0  0  0  0  0  0  0  0  0  0  0  0
   -1.3801   -6.9624   29.1559 H   0  0  0  0  0  0  0  0  0  0  0  0
    0.6757   -7.6438   31.2975 H   0  0  0  0  0  0  0  0  0  0  0  0
    1.0076   -7.5414   29.5157 H   0  0  0  0  0  0  0  0  0  0  0  0
   -2.1886   -9.4541   31.4316 H   0  0  0  0  0  0  0  0  0  0  0  0
   -0.5787   -9.6153   31.8846 H   0  0  0  0  0  0  0  0  0  0  0  0
  1  2  1  0
  2  3  1  0
  3  4  1  0
  4  5  1  0
  4  6  1  0
  6  7  1  0
  7  8  1  0
  8  9  2  0
  8 10  1  0
 10 11  1  0
 11 12  2  0
 12 13  1  0
 13 14  1  0
  2 15  1  0
 15 16  2  0
 15 17  1  0
 17 18  1  0
 18 19  1  0
 19 20  1  0
 20 21  1  0
 19 22  1  0
 22 23  1  0
 14 10  2  0
 23 17  1  0
 21 19  1  0
  1 24  1  0
  1 25  1  0
  1 26  1  0
  3 27  1  0
  3 28  1  0
  4 29  1  0
  5 30  1  0
  6 31  1  0
  6 32  1  0
  7 33  1  0
 11 34  1  0
 12 35  1  0
 17 36  1  0
 18 37  1  0
 18 38  1  0
 20 39  1  0
 20 40  1  0
 21 41  1  0
 21 42  1  0
 22 43  1  0
 22 44  1  0
M  END
>  <Energy>  (853) 
935.78056795154339

>  <compound_id>  (853) 
51907

>  <target_id>  (853) 
1

>  <reference_id>  (853) 
187

>  <inspiration_ids>  (853) 
[187, 28]

>  <energy_score>  (853) 
777.886543942237

>  <distance_score>  (853) 
10.994904097424904

>  <path>  (853) 
/opt/xchem-fragalysis-2/maxwin/BulkDock/SCRATCH/511024/C51907-P187/C51907-P187.minimised.mol

>  <scratch_subdir>  (853) 
/opt/xchem-fragalysis-2/maxwin/BulkDock/SCRATCH/511024/C51907-P187

>  <fragmenstein_runtime>  (853) 
21.674682140350342

>  <fragmenstein_outcome>  (853) 
too moved

>  <fragmenstein_mode>  (853) 
expansion

>  <fragmenstein_error>  (853) 


$$$$
C51907-P28
     RDKit          3D

 44 46  0  0  0  0  0  0  0  0999 V2000
   -1.6090  -10.9906   30.4679 C   0  0  0  0  0  0  0  0  0  0  0  0
   -1.8325  -10.2756   29.3844 N   0  0  0  0  0  0  0  0  0  0  0  0
   -2.5904  -12.0650   28.6464 C   0  0  0  0  0  0  0  0  0  0  0  0
   -3.7586  -13.1269   27.1762 C   0  0  0  0  0  0  0  0  0  0  0  0
   -5.0204  -12.9952   27.9835 O   0  0  0  0  0  0  0  0  0  0  0  0
   -4.5961  -14.7128   25.9603 C   0  0  0  0  0  0  0  0  0  0  0  0
   -5.6746  -15.2575   24.2955 N   0  0  0  0  0  0  0  0  0  0  0  0
   -6.4879  -17.0675   23.6747 C   0  0  0  0  0  0  0  0  0  0  0  0
   -6.4921  -18.0950   24.3127 O   0  0  0  0  0  0  0  0  0  0  0  0
   -7.1546  -17.4266   22.0241 C   0  0  0  0  0  0  0  0  0  0  0  0
   -7.1182  -18.8593   21.8506 C   0  0  0  0  0  0  0  0  0  0  0  0
   -6.2406  -19.2284   20.8283 C   0  0  0  0  0  0  0  0  0  0  0  0
   -6.2199  -18.0759   19.7033 S   0  0  0  0  0  0  0  0  0  0  0  0
   -6.8303  -16.9540   20.8113 N   0  0  0  0  0  0  0  0  0  0  0  0
   -0.5875   -9.4970   29.0456 C   0  0  0  0  0  0  0  0  0  0  0  0
    0.3175   -9.7629   28.3469 O   0  0  0  0  0  0  0  0  0  0  0  0
   -0.7570   -8.0624   29.9133 C   0  0  0  0  0  0  0  0  0  0  0  0
    0.5134   -7.3883   30.4076 C   0  0  0  0  0  0  0  0  0  0  0  0
    0.0059   -6.4408   31.4318 C   0  0  0  0  0  0  0  0  0  0  0  0
    0.8892   -5.4559   32.1543 C   0  0  0  0  0  0  0  0  0  0  0  0
   -0.1194   -4.9600   31.1498 C   0  0  0  0  0  0  0  0  0  0  0  0
   -1.0718   -7.2035   32.1062 C   0  0  0  0  0  0  0  0  0  0  0  0
   -1.6352   -8.0442   31.0821 O   0  0  0  0  0  0  0  0  0  0  0  0
   -0.6374  -11.3478   30.7345 H   0  0  0  0  0  0  0  0  0  0  0  0
   -2.1748  -10.3708   31.1982 H   0  0  0  0  0  0  0  0  0  0  0  0
   -0.9967  -10.2118   30.9847 H   0  0  0  0  0  0  0  0  0  0  0  0
   -2.4301  -12.9130   29.2996 H   0  0  0  0  0  0  0  0  0  0  0  0
   -3.5181  -11.8593   29.1885 H   0  0  0  0  0  0  0  0  0  0  0  0
   -3.2187  -13.9946   27.6068 H   0  0  0  0  0  0  0  0  0  0  0  0
   -5.2384  -12.0349   27.9857 H   0  0  0  0  0  0  0  0  0  0  0  0
   -3.7918  -14.4828   25.2500 H   0  0  0  0  0  0  0  0  0  0  0  0
   -5.4905  -14.0830   26.0652 H   0  0  0  0  0  0  0  0  0  0  0  0
   -5.8605  -14.5489   23.6461 H   0  0  0  0  0  0  0  0  0  0  0  0
   -7.3361  -19.4863   22.6968 H   0  0  0  0  0  0  0  0  0  0  0  0
   -5.6056  -20.0759   20.6384 H   0  0  0  0  0  0  0  0  0  0  0  0
   -1.2967   -7.3950   29.2427 H   0  0  0  0  0  0  0  0  0  0  0  0
    1.1796   -6.9422   29.6718 H   0  0  0  0  0  0  0  0  0  0  0  0
    1.0629   -8.1415   30.9466 H   0  0  0  0  0  0  0  0  0  0  0  0
    1.9373   -5.4004   31.8834 H   0  0  0  0  0  0  0  0  0  0  0  0
    0.6932   -5.2573   33.2028 H   0  0  0  0  0  0  0  0  0  0  0  0
    0.2487   -4.5774   30.2036 H   0  0  0  0  0  0  0  0  0  0  0  0
   -0.9784   -4.4202   31.5318 H   0  0  0  0  0  0  0  0  0  0  0  0
   -1.8348   -6.5780   32.5586 H   0  0  0  0  0  0  0  0  0  0  0  0
   -0.6635   -7.8579   32.8844 H   0  0  0  0  0  0  0  0  0  0  0  0
  1  2  1  0
  2  3  1  0
  3  4  1  0
  4  5  1  0
  4  6  1  0
  6  7  1  0
  7  8  1  0
  8  9  2  0
  8 10  1  0
 10 11  1  0
 11 12  2  0
 12 13  1  0
 13 14  1  0
  2 15  1  0
 15 16  2  0
 15 17  1  0
 17 18  1  0
 18 19  1  0
 19 20  1  0
 20 21  1  0
 19 22  1  0
 22 23  1  0
 14 10  2  0
 23 17  1  0
 21 19  1  0
  1 24  1  0
  1 25  1  0
  1 26  1  0
  3 27  1  0
  3 28  1  0
  4 29  1  0
  5 30  1  0
  6 31  1  0
  6 32  1  0
  7 33  1  0
 11 34  1  0
 12 35  1  0
 17 36  1  0
 18 37  1  0
 18 38  1  0
 20 39  1  0
 20 40  1  0
 21 41  1  0
 21 42  1  0
 22 43  1  0
 22 44  1  0
M  END
>  <Energy>  (854) 
1069.0158879103706

>  <compound_id>  (854) 
51907

>  <target_id>  (854) 
1

>  <reference_id>  (854) 
28

>  <inspiration_ids>  (854) 
[187, 28]

>  <energy_score>  (854) 
911.1218639010419

>  <distance_score>  (854) 
9.608156596475249

>  <path>  (854) 
/opt/xchem-fragalysis-2/maxwin/BulkDock/SCRATCH/511024/C51907-P28/C51907-P28.minimised.mol

>  <scratch_subdir>  (854) 
/opt/xchem-fragalysis-2/maxwin/BulkDock/SCRATCH/511024/C51907-P28

>  <fragmenstein_runtime>  (854) 
16.735020399093628

>  <fragmenstein_outcome>  (854) 
too moved

>  <fragmenstein_mode>  (854) 
expansion

>  <fragmenstein_error>  (854) 


$$$$
C51908-P187
     RDKit          3D

 46 47  0  0  0  0  0  0  0  0999 V2000
   -6.3887  -18.7585   19.7402 C   0  0  0  0  0  0  0  0  0  0  0  0
   -6.9441  -18.2513   21.0100 C   0  0  0  0  0  0  0  0  0  0  0  0
   -7.5871  -17.1479   21.5604 C   0  0  0  0  0  0  0  0  0  0  0  0
   -7.4085  -16.8962   23.2671 C   0  0  0  0  0  0  0  0  0  0  0  0
   -7.2124  -15.0940   24.2179 C   0  0  0  0  0  0  0  0  0  0  0  0
   -8.0522  -15.0082   25.1118 O   0  0  0  0  0  0  0  0  0  0  0  0
   -6.0672  -13.6937   23.7918 N   0  0  0  0  0  0  0  0  0  0  0  0
   -5.9751  -11.8702   24.4460 C   0  0  0  0  0  0  0  0  0  0  0  0
   -4.6124  -10.4469   24.3161 C   0  0  0  0  0  0  0  0  0  0  0  0
   -4.7682   -9.8181   23.0082 O   0  0  0  0  0  0  0  0  0  0  0  0
   -4.3476   -8.7512   25.2670 C   0  0  0  0  0  0  0  0  0  0  0  0
   -2.8648   -7.6026   25.9064 N   0  0  0  0  0  0  0  0  0  0  0  0
   -2.6233   -8.1126   24.3619 C   0  0  0  0  0  0  0  0  0  0  0  0
   -1.7910   -7.7422   27.4868 C   0  0  0  0  0  0  0  0  0  0  0  0
   -0.7005   -8.4311   27.4334 O   0  0  0  0  0  0  0  0  0  0  0  0
   -1.8836   -7.0449   28.9168 C   0  0  0  0  0  0  0  0  0  0  0  0
   -2.0057   -7.4515   30.6069 C   0  0  0  0  0  0  0  0  0  0  0  0
   -0.8578   -8.0982   31.3859 C   0  0  0  0  0  0  0  0  0  0  0  0
    0.1651   -6.9814   31.5863 C   0  0  0  0  0  0  0  0  0  0  0  0
    0.2783   -6.2386   30.2690 C   0  0  0  0  0  0  0  0  0  0  0  0
   -0.2136   -7.1497   29.2810 O   0  0  0  0  0  0  0  0  0  0  0  0
   -6.7858  -18.1072   23.4238 N   0  0  0  0  0  0  0  0  0  0  0  0
   -7.4660  -19.1440   22.2838 S   0  0  0  0  0  0  0  0  0  0  0  0
   -5.8431  -17.9725   19.2202 H   0  0  0  0  0  0  0  0  0  0  0  0
   -5.6629  -19.5548   19.9223 H   0  0  0  0  0  0  0  0  0  0  0  0
   -7.1317  -19.1329   19.0519 H   0  0  0  0  0  0  0  0  0  0  0  0
   -7.8314  -16.2944   20.9679 H   0  0  0  0  0  0  0  0  0  0  0  0
   -5.4242  -14.0032   23.1091 H   0  0  0  0  0  0  0  0  0  0  0  0
   -6.3763  -11.8691   25.4695 H   0  0  0  0  0  0  0  0  0  0  0  0
   -6.7214  -11.4166   23.7813 H   0  0  0  0  0  0  0  0  0  0  0  0
   -3.6474  -10.9759   24.3416 H   0  0  0  0  0  0  0  0  0  0  0  0
   -4.9498  -10.5672   22.4036 H   0  0  0  0  0  0  0  0  0  0  0  0
   -4.8087   -8.1921   24.4178 H   0  0  0  0  0  0  0  0  0  0  0  0
   -5.2267   -8.7986   25.9599 H   0  0  0  0  0  0  0  0  0  0  0  0
   -1.8206   -7.5853   23.8661 H   0  0  0  0  0  0  0  0  0  0  0  0
   -2.5211   -9.1904   24.1745 H   0  0  0  0  0  0  0  0  0  0  0  0
   -3.3515   -7.6267   23.6919 H   0  0  0  0  0  0  0  0  0  0  0  0
   -1.6872   -6.0181   28.5645 H   0  0  0  0  0  0  0  0  0  0  0  0
   -2.0378   -6.5112   31.1666 H   0  0  0  0  0  0  0  0  0  0  0  0
   -2.9383   -7.9135   30.9281 H   0  0  0  0  0  0  0  0  0  0  0  0
   -0.4674   -8.9570   30.8370 H   0  0  0  0  0  0  0  0  0  0  0  0
   -1.2033   -8.4519   32.3629 H   0  0  0  0  0  0  0  0  0  0  0  0
    1.1235   -7.3749   31.9089 H   0  0  0  0  0  0  0  0  0  0  0  0
   -0.1430   -6.2867   32.3774 H   0  0  0  0  0  0  0  0  0  0  0  0
    1.3258   -6.0148   30.0467 H   0  0  0  0  0  0  0  0  0  0  0  0
   -0.2779   -5.2961   30.2520 H   0  0  0  0  0  0  0  0  0  0  0  0
  1  2  1  0
  2  3  2  0
  3  4  1  0
  4  5  1  0
  5  6  2  0
  5  7  1  0
  7  8  1  0
  8  9  1  0
  9 10  1  0
  9 11  1  0
 11 12  1  0
 12 13  1  0
 12 14  1  0
 14 15  2  0
 14 16  1  0
 16 17  1  0
 17 18  1  0
 18 19  1  0
 19 20  1  0
 20 21  1  0
  4 22  2  0
 22 23  1  0
 23  2  1  0
 21 16  1  0
  1 24  1  0
  1 25  1  0
  1 26  1  0
  3 27  1  0
  7 28  1  0
  8 29  1  0
  8 30  1  0
  9 31  1  0
 10 32  1  0
 11 33  1  0
 11 34  1  0
 13 35  1  0
 13 36  1  0
 13 37  1  0
 16 38  1  0
 17 39  1  0
 17 40  1  0
 18 41  1  0
 18 42  1  0
 19 43  1  0
 19 44  1  0
 20 45  1  0
 20 46  1  0
M  END
>  <Energy>  (855) 
921.12173248453882

>  <compound_id>  (855) 
51908

>  <target_id>  (855) 
1

>  <reference_id>  (855) 
187

>  <inspiration_ids>  (855) 
[187, 28]

>  <energy_score>  (855) 
793.93722348706

>  <distance_score>  (855) 
10.294062427486205

>  <path>  (855) 
/opt/xchem-fragalysis-2/maxwin/BulkDock/SCRATCH/511024/C51908-P187/C51908-P187.minimised.mol

>  <scratch_subdir>  (855) 
/opt/xchem-fragalysis-2/maxwin/BulkDock/SCRATCH/511024/C51908-P187

>  <fragmenstein_runtime>  (855) 
20.491926908493042

>  <fragmenstein_outcome>  (855) 
too moved

>  <fragmenstein_mode>  (855) 
expansion

>  <fragmenstein_error>  (855) 


$$$$
C51908-P28
     RDKit          3D

 46 47  0  0  0  0  0  0  0  0999 V2000
   -5.6200  -11.2688   18.8570 C   0  0  0  0  0  0  0  0  0  0  0  0
   -5.5167   -9.9168   19.4923 C   0  0  0  0  0  0  0  0  0  0  0  0
   -4.5791   -9.3768   20.3610 C   0  0  0  0  0  0  0  0  0  0  0  0
   -4.7818   -7.9257   20.6262 C   0  0  0  0  0  0  0  0  0  0  0  0
   -3.8097   -7.0493   21.4957 C   0  0  0  0  0  0  0  0  0  0  0  0
   -2.8905   -7.6779   21.9425 O   0  0  0  0  0  0  0  0  0  0  0  0
   -4.1384   -5.6178   21.6172 N   0  0  0  0  0  0  0  0  0  0  0  0
   -3.3706   -4.4728   22.2573 C   0  0  0  0  0  0  0  0  0  0  0  0
   -4.0691   -3.0571   22.5144 C   0  0  0  0  0  0  0  0  0  0  0  0
   -4.2066   -2.4440   21.2276 O   0  0  0  0  0  0  0  0  0  0  0  0
   -3.2798   -1.9689   23.5231 C   0  0  0  0  0  0  0  0  0  0  0  0
   -3.9336   -0.7864   24.4464 N   0  0  0  0  0  0  0  0  0  0  0  0
   -4.7295   -0.5826   23.2363 C   0  0  0  0  0  0  0  0  0  0  0  0
   -2.8664    0.0527   25.0535 C   0  0  0  0  0  0  0  0  0  0  0  0
   -2.3345    1.0648   24.6421 O   0  0  0  0  0  0  0  0  0  0  0  0
   -2.3390   -0.3455   26.6510 C   0  0  0  0  0  0  0  0  0  0  0  0
   -1.0390    0.3948   27.0821 C   0  0  0  0  0  0  0  0  0  0  0  0
   -0.7145    0.3337   28.5719 C   0  0  0  0  0  0  0  0  0  0  0  0
   -0.6739   -1.1206   28.9916 C   0  0  0  0  0  0  0  0  0  0  0  0
   -2.0243   -1.6941   28.6419 C   0  0  0  0  0  0  0  0  0  0  0  0
   -2.3392   -1.6298   27.2442 O   0  0  0  0  0  0  0  0  0  0  0  0
   -5.8802   -7.4583   20.0103 N   0  0  0  0  0  0  0  0  0  0  0  0
   -6.6264   -8.6756   19.1314 S   0  0  0  0  0  0  0  0  0  0  0  0
   -4.7797  -11.8789   19.1881 H   0  0  0  0  0  0  0  0  0  0  0  0
   -6.5558  -11.7739   19.0825 H   0  0  0  0  0  0  0  0  0  0  0  0
   -5.5539  -11.1328   17.7794 H   0  0  0  0  0  0  0  0  0  0  0  0
   -3.7468   -9.9314   20.7782 H   0  0  0  0  0  0  0  0  0  0  0  0
   -4.9503   -5.4126   21.0380 H   0  0  0  0  0  0  0  0  0  0  0  0
   -2.5071   -4.3224   21.5986 H   0  0  0  0  0  0  0  0  0  0  0  0
   -2.9807   -4.8730   23.1959 H   0  0  0  0  0  0  0  0  0  0  0  0
   -5.0904   -3.2419   22.8552 H   0  0  0  0  0  0  0  0  0  0  0  0
   -3.3140   -2.2642   20.8810 H   0  0  0  0  0  0  0  0  0  0  0  0
   -2.9105   -2.6249   24.3009 H   0  0  0  0  0  0  0  0  0  0  0  0
   -2.4357   -1.5294   22.9727 H   0  0  0  0  0  0  0  0  0  0  0  0
   -5.2580    0.3587   23.4554 H   0  0  0  0  0  0  0  0  0  0  0  0
   -4.1658   -0.2963   22.3377 H   0  0  0  0  0  0  0  0  0  0  0  0
   -5.5604   -1.2834   23.1265 H   0  0  0  0  0  0  0  0  0  0  0  0
   -3.0672    0.2405   27.2139 H   0  0  0  0  0  0  0  0  0  0  0  0
   -0.1880   -0.1114   26.6508 H   0  0  0  0  0  0  0  0  0  0  0  0
   -1.0448    1.4367   26.7475 H   0  0  0  0  0  0  0  0  0  0  0  0
   -1.4704    0.8849   29.1410 H   0  0  0  0  0  0  0  0  0  0  0  0
    0.2534    0.8087   28.7667 H   0  0  0  0  0  0  0  0  0  0  0  0
   -0.4800   -1.2047   30.0656 H   0  0  0  0  0  0  0  0  0  0  0  0
    0.1209   -1.6515   28.4556 H   0  0  0  0  0  0  0  0  0  0  0  0
   -2.7628   -1.1258   29.2047 H   0  0  0  0  0  0  0  0  0  0  0  0
   -2.0648   -2.7316   28.9776 H   0  0  0  0  0  0  0  0  0  0  0  0
  1  2  1  0
  2  3  2  0
  3  4  1  0
  4  5  1  0
  5  6  2  0
  5  7  1  0
  7  8  1  0
  8  9  1  0
  9 10  1  0
  9 11  1  0
 11 12  1  0
 12 13  1  0
 12 14  1  0
 14 15  2  0
 14 16  1  0
 16 17  1  0
 17 18  1  0
 18 19  1  0
 19 20  1  0
 20 21  1  0
  4 22  2  0
 22 23  1  0
 23  2  1  0
 21 16  1  0
  1 24  1  0
  1 25  1  0
  1 26  1  0
  3 27  1  0
  7 28  1  0
  8 29  1  0
  8 30  1  0
  9 31  1  0
 10 32  1  0
 11 33  1  0
 11 34  1  0
 13 35  1  0
 13 36  1  0
 13 37  1  0
 16 38  1  0
 17 39  1  0
 17 40  1  0
 18 41  1  0
 18 42  1  0
 19 43  1  0
 19 44  1  0
 20 45  1  0
 20 46  1  0
M  END
>  <Energy>  (856) 
203.94080603418752

>  <compound_id>  (856) 
51908

>  <target_id>  (856) 
1

>  <reference_id>  (856) 
28

>  <inspiration_ids>  (856) 
[187, 28]

>  <energy_score>  (856) 
76.75629703669938

>  <distance_score>  (856) 
14.011552962733495

>  <path>  (856) 
/opt/xchem-fragalysis-2/maxwin/BulkDock/SCRATCH/511024/C51908-P28/C51908-P28.minimised.mol

>  <scratch_subdir>  (856) 
/opt/xchem-fragalysis-2/maxwin/BulkDock/SCRATCH/511024/C51908-P28

>  <fragmenstein_runtime>  (856) 
21.839547634124756

>  <fragmenstein_outcome>  (856) 
too moved

>  <fragmenstein_mode>  (856) 
expansion

>  <fragmenstein_error>  (856) 


$$$$
C51911-P187
     RDKit          3D

 46 47  0  0  0  0  0  0  0  0999 V2000
  -10.2264  -22.3377   22.4885 C   0  0  0  0  0  0  0  0  0  0  0  0
   -9.4616  -21.1724   21.9275 C   0  0  0  0  0  0  0  0  0  0  0  0
   -8.2387  -20.2544   22.2297 C   0  0  0  0  0  0  0  0  0  0  0  0
   -7.6944  -19.1342   21.4476 C   0  0  0  0  0  0  0  0  0  0  0  0
   -6.8562  -17.7027   21.9769 C   0  0  0  0  0  0  0  0  0  0  0  0
   -5.7734  -17.4731   21.4887 O   0  0  0  0  0  0  0  0  0  0  0  0
   -7.7234  -16.8506   23.0894 N   0  0  0  0  0  0  0  0  0  0  0  0
   -7.2869  -15.1527   24.1933 C   0  0  0  0  0  0  0  0  0  0  0  0
   -7.5961  -14.3171   26.0418 C   0  0  0  0  0  0  0  0  0  0  0  0
   -8.8859  -14.6003   26.5925 O   0  0  0  0  0  0  0  0  0  0  0  0
   -6.7693  -13.3552   27.6143 C   0  0  0  0  0  0  0  0  0  0  0  0
   -5.8626  -11.8690   27.4409 N   0  0  0  0  0  0  0  0  0  0  0  0
   -6.6700  -11.7934   26.2811 C   0  0  0  0  0  0  0  0  0  0  0  0
   -4.1861  -12.1276   27.6276 C   0  0  0  0  0  0  0  0  0  0  0  0
   -3.4181  -12.4014   26.7096 O   0  0  0  0  0  0  0  0  0  0  0  0
   -3.1623  -11.8064   29.2875 C   0  0  0  0  0  0  0  0  0  0  0  0
   -1.8140  -10.6023   30.2452 C   0  0  0  0  0  0  0  0  0  0  0  0
   -0.9512   -9.3423   30.5181 C   0  0  0  0  0  0  0  0  0  0  0  0
   -0.2894   -9.1548   29.2747 C   0  0  0  0  0  0  0  0  0  0  0  0
   -0.9810   -9.9475   28.3503 O   0  0  0  0  0  0  0  0  0  0  0  0
   -2.0389  -11.3107   28.4417 C   0  0  0  0  0  0  0  0  0  0  0  0
   -7.8592  -19.5930   20.1474 N   0  0  0  0  0  0  0  0  0  0  0  0
   -9.4674  -21.1089   19.9695 S   0  0  0  0  0  0  0  0  0  0  0  0
  -10.6438  -22.9775   21.7054 H   0  0  0  0  0  0  0  0  0  0  0  0
   -9.5808  -22.9554   23.1202 H   0  0  0  0  0  0  0  0  0  0  0  0
  -11.0564  -21.9671   23.0980 H   0  0  0  0  0  0  0  0  0  0  0  0
   -7.5080  -20.6824   22.8335 H   0  0  0  0  0  0  0  0  0  0  0  0
   -8.5708  -17.2552   23.2072 H   0  0  0  0  0  0  0  0  0  0  0  0
   -8.0450  -15.6508   24.8620 H   0  0  0  0  0  0  0  0  0  0  0  0
   -6.2352  -14.8992   24.0428 H   0  0  0  0  0  0  0  0  0  0  0  0
   -7.2517  -13.4347   25.6693 H   0  0  0  0  0  0  0  0  0  0  0  0
   -8.9835  -15.5669   26.6400 H   0  0  0  0  0  0  0  0  0  0  0  0
   -6.2267  -13.9861   28.3312 H   0  0  0  0  0  0  0  0  0  0  0  0
   -7.6669  -13.0216   28.1638 H   0  0  0  0  0  0  0  0  0  0  0  0
   -7.7464  -11.7090   26.4879 H   0  0  0  0  0  0  0  0  0  0  0  0
   -6.5798  -10.6998   26.1152 H   0  0  0  0  0  0  0  0  0  0  0  0
   -6.2749  -11.9825   25.2829 H   0  0  0  0  0  0  0  0  0  0  0  0
   -3.0268  -12.8531   29.6001 H   0  0  0  0  0  0  0  0  0  0  0  0
   -2.4484  -10.0402   30.9709 H   0  0  0  0  0  0  0  0  0  0  0  0
   -1.0831  -11.2878   30.6514 H   0  0  0  0  0  0  0  0  0  0  0  0
   -1.4685   -8.4102   30.8289 H   0  0  0  0  0  0  0  0  0  0  0  0
   -0.3396   -9.4163   31.4016 H   0  0  0  0  0  0  0  0  0  0  0  0
    0.7846   -9.2975   29.2100 H   0  0  0  0  0  0  0  0  0  0  0  0
   -0.4861   -8.1148   29.0714 H   0  0  0  0  0  0  0  0  0  0  0  0
   -1.6155  -12.1224   28.9990 H   0  0  0  0  0  0  0  0  0  0  0  0
   -2.0919  -11.4680   27.3966 H   0  0  0  0  0  0  0  0  0  0  0  0
  1  2  1  0
  2  3  2  0
  3  4  1  0
  4  5  1  0
  5  6  2  0
  5  7  1  0
  7  8  1  0
  8  9  1  0
  9 10  1  0
  9 11  1  0
 11 12  1  0
 12 13  1  0
 12 14  1  0
 14 15  2  0
 14 16  1  0
 16 17  1  0
 17 18  1  0
 18 19  1  0
 19 20  1  0
 20 21  1  0
  4 22  2  0
 22 23  1  0
 23  2  1  0
 21 16  1  0
  1 24  1  0
  1 25  1  0
  1 26  1  0
  3 27  1  0
  7 28  1  0
  8 29  1  0
  8 30  1  0
  9 31  1  0
 10 32  1  0
 11 33  1  0
 11 34  1  0
 13 35  1  0
 13 36  1  0
 13 37  1  0
 16 38  1  0
 17 39  1  0
 17 40  1  0
 18 41  1  0
 18 42  1  0
 19 43  1  0
 19 44  1  0
 21 45  1  0
 21 46  1  0
M  END
>  <Energy>  (857) 
1082.9857445148784

>  <compound_id>  (857) 
51911

>  <target_id>  (857) 
1

>  <reference_id>  (857) 
187

>  <inspiration_ids>  (857) 
[187, 28]

>  <energy_score>  (857) 
980.9211109340216

>  <distance_score>  (857) 
10.827337003325022

>  <path>  (857) 
/opt/xchem-fragalysis-2/maxwin/BulkDock/SCRATCH/511024/C51911-P187/C51911-P187.minimised.mol

>  <scratch_subdir>  (857) 
/opt/xchem-fragalysis-2/maxwin/BulkDock/SCRATCH/511024/C51911-P187

>  <fragmenstein_runtime>  (857) 
23.968497276306152

>  <fragmenstein_outcome>  (857) 
too moved

>  <fragmenstein_mode>  (857) 
expansion

>  <fragmenstein_error>  (857) 


$$$$
C51911-P28
     RDKit          3D

 46 47  0  0  0  0  0  0  0  0999 V2000
   -8.2324  -17.8999   17.1285 C   0  0  0  0  0  0  0  0  0  0  0  0
   -8.7903  -16.7931   17.7284 C   0  0  0  0  0  0  0  0  0  0  0  0
   -8.3961  -15.5896   18.0746 C   0  0  0  0  0  0  0  0  0  0  0  0
   -8.8172  -14.4673   19.3231 C   0  0  0  0  0  0  0  0  0  0  0  0
   -7.5635  -12.8980   19.5992 C   0  0  0  0  0  0  0  0  0  0  0  0
   -7.4162  -12.3280   18.5588 O   0  0  0  0  0  0  0  0  0  0  0  0
   -6.6471  -12.0169   21.1357 N   0  0  0  0  0  0  0  0  0  0  0  0
   -5.7099  -10.4147   21.2885 C   0  0  0  0  0  0  0  0  0  0  0  0
   -5.1969   -9.2705   22.8592 C   0  0  0  0  0  0  0  0  0  0  0  0
   -6.4995   -8.7741   23.3166 O   0  0  0  0  0  0  0  0  0  0  0  0
   -4.1433   -8.9834   24.5212 C   0  0  0  0  0  0  0  0  0  0  0  0
   -3.0388   -7.5603   25.2096 N   0  0  0  0  0  0  0  0  0  0  0  0
   -2.5387   -7.8531   23.8346 C   0  0  0  0  0  0  0  0  0  0  0  0
   -2.2464   -7.6879   26.8859 C   0  0  0  0  0  0  0  0  0  0  0  0
   -1.2034   -8.1718   26.7891 O   0  0  0  0  0  0  0  0  0  0  0  0
   -2.4551   -7.1987   28.6626 C   0  0  0  0  0  0  0  0  0  0  0  0
   -1.8905   -7.1000   30.3838 C   0  0  0  0  0  0  0  0  0  0  0  0
   -0.7403   -6.1371   30.7084 C   0  0  0  0  0  0  0  0  0  0  0  0
    0.4716   -6.9983   30.6800 C   0  0  0  0  0  0  0  0  0  0  0  0
    0.4242   -7.7050   29.4607 O   0  0  0  0  0  0  0  0  0  0  0  0
   -0.8711   -8.3147   29.1094 C   0  0  0  0  0  0  0  0  0  0  0  0
  -10.0521  -15.6486   19.3980 N   0  0  0  0  0  0  0  0  0  0  0  0
  -11.0387  -17.3291   18.0343 S   0  0  0  0  0  0  0  0  0  0  0  0
   -7.4194  -18.2680   17.7472 H   0  0  0  0  0  0  0  0  0  0  0  0
   -9.0856  -18.5516   17.1083 H   0  0  0  0  0  0  0  0  0  0  0  0
   -8.1175  -17.4795   16.1689 H   0  0  0  0  0  0  0  0  0  0  0  0
   -7.5926  -15.3183   17.3703 H   0  0  0  0  0  0  0  0  0  0  0  0
   -6.8883  -12.5045   21.9713 H   0  0  0  0  0  0  0  0  0  0  0  0
   -6.3386   -9.7432   20.6944 H   0  0  0  0  0  0  0  0  0  0  0  0
   -4.7840  -10.5992   20.7299 H   0  0  0  0  0  0  0  0  0  0  0  0
   -4.7902   -8.4490   22.2578 H   0  0  0  0  0  0  0  0  0  0  0  0
   -6.8146   -9.4484   23.9464 H   0  0  0  0  0  0  0  0  0  0  0  0
   -3.5019   -9.8756   24.5545 H   0  0  0  0  0  0  0  0  0  0  0  0
   -4.9668   -9.0032   25.2328 H   0  0  0  0  0  0  0  0  0  0  0  0
   -2.1253   -8.8445   23.6185 H   0  0  0  0  0  0  0  0  0  0  0  0
   -3.2519   -7.4923   23.0880 H   0  0  0  0  0  0  0  0  0  0  0  0
   -1.7183   -7.1533   23.6675 H   0  0  0  0  0  0  0  0  0  0  0  0
   -2.0398   -6.2124   28.4539 H   0  0  0  0  0  0  0  0  0  0  0  0
   -2.6436   -6.8436   31.0597 H   0  0  0  0  0  0  0  0  0  0  0  0
   -1.7564   -8.0192   30.9806 H   0  0  0  0  0  0  0  0  0  0  0  0
   -0.6632   -5.3234   29.9809 H   0  0  0  0  0  0  0  0  0  0  0  0
   -0.8643   -5.6859   31.6988 H   0  0  0  0  0  0  0  0  0  0  0  0
    0.4905   -7.7067   31.5142 H   0  0  0  0  0  0  0  0  0  0  0  0
    1.3883   -6.4031   30.7179 H   0  0  0  0  0  0  0  0  0  0  0  0
   -1.0291   -9.1028   29.8652 H   0  0  0  0  0  0  0  0  0  0  0  0
   -0.5468   -9.0391   28.3669 H   0  0  0  0  0  0  0  0  0  0  0  0
  1  2  1  0
  2  3  2  0
  3  4  1  0
  4  5  1  0
  5  6  2  0
  5  7  1  0
  7  8  1  0
  8  9  1  0
  9 10  1  0
  9 11  1  0
 11 12  1  0
 12 13  1  0
 12 14  1  0
 14 15  2  0
 14 16  1  0
 16 17  1  0
 17 18  1  0
 18 19  1  0
 19 20  1  0
 20 21  1  0
  4 22  2  0
 22 23  1  0
 23  2  1  0
 21 16  1  0
  1 24  1  0
  1 25  1  0
  1 26  1  0
  3 27  1  0
  7 28  1  0
  8 29  1  0
  8 30  1  0
  9 31  1  0
 10 32  1  0
 11 33  1  0
 11 34  1  0
 13 35  1  0
 13 36  1  0
 13 37  1  0
 16 38  1  0
 17 39  1  0
 17 40  1  0
 18 41  1  0
 18 42  1  0
 19 43  1  0
 19 44  1  0
 21 45  1  0
 21 46  1  0
M  END
>  <Energy>  (858) 
1344.2547431038113

>  <compound_id>  (858) 
51911

>  <target_id>  (858) 
1

>  <reference_id>  (858) 
28

>  <inspiration_ids>  (858) 
[187, 28]

>  <energy_score>  (858) 
1242.1901095229532

>  <distance_score>  (858) 
9.998850046274068

>  <path>  (858) 
/opt/xchem-fragalysis-2/maxwin/BulkDock/SCRATCH/511024/C51911-P28/C51911-P28.minimised.mol

>  <scratch_subdir>  (858) 
/opt/xchem-fragalysis-2/maxwin/BulkDock/SCRATCH/511024/C51911-P28

>  <fragmenstein_runtime>  (858) 
24.572104454040527

>  <fragmenstein_outcome>  (858) 
too moved

>  <fragmenstein_mode>  (858) 
expansion

>  <fragmenstein_error>  (858) 


$$$$
C51917-P187
     RDKit          3D

 45 46  0  0  0  0  0  0  0  0999 V2000
   -9.2624  -12.0237   30.3432 C   0  0  0  0  0  0  0  0  0  0  0  0
   -9.1155  -11.0417   29.1611 C   0  0  0  0  0  0  0  0  0  0  0  0
  -10.5203  -10.7151   28.5642 C   0  0  0  0  0  0  0  0  0  0  0  0
  -11.3828  -11.9454   28.3939 N   0  0  0  0  0  0  0  0  0  0  0  0
  -12.0381  -12.5064   27.2018 C   0  0  0  0  0  0  0  0  0  0  0  0
  -12.1160  -12.0829   26.0824 O   0  0  0  0  0  0  0  0  0  0  0  0
  -12.7871  -13.8471   27.5819 C   0  0  0  0  0  0  0  0  0  0  0  0
  -12.9121  -15.0041   26.5571 C   0  0  0  0  0  0  0  0  0  0  0  0
  -13.8075  -15.0954   25.4218 C   0  0  0  0  0  0  0  0  0  0  0  0
  -13.7463  -16.3345   24.8095 C   0  0  0  0  0  0  0  0  0  0  0  0
  -12.6897  -17.3151   25.7188 S   0  0  0  0  0  0  0  0  0  0  0  0
  -12.2451  -16.1422   26.8019 N   0  0  0  0  0  0  0  0  0  0  0  0
   -8.1110  -10.0985   29.6907 N   0  0  0  0  0  0  0  0  0  0  0  0
   -6.5959  -10.2887   30.0514 C   0  0  0  0  0  0  0  0  0  0  0  0
   -6.0068  -11.2796   29.8468 O   0  0  0  0  0  0  0  0  0  0  0  0
   -5.3679   -8.8691   31.1331 C   0  0  0  0  0  0  0  0  0  0  0  0
   -3.3762   -8.5003   31.4807 C   0  0  0  0  0  0  0  0  0  0  0  0
   -2.4136   -8.6335   32.9006 C   0  0  0  0  0  0  0  0  0  0  0  0
   -1.4617   -7.5435   33.4545 C   0  0  0  0  0  0  0  0  0  0  0  0
   -0.6062   -6.8938   32.4193 C   0  0  0  0  0  0  0  0  0  0  0  0
   -1.4510   -6.5484   31.3501 O   0  0  0  0  0  0  0  0  0  0  0  0
   -2.0008   -7.6976   30.7108 C   0  0  0  0  0  0  0  0  0  0  0  0
   -9.9084  -11.6037   31.1226 H   0  0  0  0  0  0  0  0  0  0  0  0
   -8.3034  -12.2756   30.8098 H   0  0  0  0  0  0  0  0  0  0  0  0
   -9.6826  -12.9828   30.0261 H   0  0  0  0  0  0  0  0  0  0  0  0
   -8.5718  -11.5959   28.3842 H   0  0  0  0  0  0  0  0  0  0  0  0
  -11.0658  -10.0503   29.2415 H   0  0  0  0  0  0  0  0  0  0  0  0
  -10.4253  -10.2222   27.5922 H   0  0  0  0  0  0  0  0  0  0  0  0
  -11.4464  -12.6123   29.1516 H   0  0  0  0  0  0  0  0  0  0  0  0
  -13.8056  -13.5509   27.8658 H   0  0  0  0  0  0  0  0  0  0  0  0
  -12.3236  -14.2674   28.4835 H   0  0  0  0  0  0  0  0  0  0  0  0
  -14.4475  -14.2885   25.0911 H   0  0  0  0  0  0  0  0  0  0  0  0
  -14.2709  -16.7013   23.9403 H   0  0  0  0  0  0  0  0  0  0  0  0
   -8.4094   -9.1948   30.0392 H   0  0  0  0  0  0  0  0  0  0  0  0
   -5.4880   -8.4589   30.1099 H   0  0  0  0  0  0  0  0  0  0  0  0
   -5.6726   -8.3094   32.0182 H   0  0  0  0  0  0  0  0  0  0  0  0
   -3.6676   -7.6081   31.8262 H   0  0  0  0  0  0  0  0  0  0  0  0
   -2.9872   -8.8718   33.7980 H   0  0  0  0  0  0  0  0  0  0  0  0
   -1.7191   -9.3996   32.5826 H   0  0  0  0  0  0  0  0  0  0  0  0
   -0.8187   -7.9774   34.2294 H   0  0  0  0  0  0  0  0  0  0  0  0
   -2.0325   -6.7700   33.9676 H   0  0  0  0  0  0  0  0  0  0  0  0
   -0.1466   -5.9821   32.8137 H   0  0  0  0  0  0  0  0  0  0  0  0
    0.2043   -7.5460   32.0780 H   0  0  0  0  0  0  0  0  0  0  0  0
   -1.1819   -8.4389   30.6417 H   0  0  0  0  0  0  0  0  0  0  0  0
   -2.1889   -7.4117   29.6773 H   0  0  0  0  0  0  0  0  0  0  0  0
  1  2  1  0
  2  3  1  0
  3  4  1  0
  4  5  1  0
  5  6  2  0
  5  7  1  0
  7  8  1  0
  8  9  1  0
  9 10  2  0
 10 11  1  0
 11 12  1  0
  2 13  1  0
 13 14  1  0
 14 15  2  0
 14 16  1  0
 16 17  1  0
 17 18  1  0
 18 19  1  0
 19 20  1  0
 20 21  1  0
 21 22  1  0
 12  8  2  0
 22 17  1  0
  1 23  1  0
  1 24  1  0
  1 25  1  0
  2 26  1  0
  3 27  1  0
  3 28  1  0
  4 29  1  0
  7 30  1  0
  7 31  1  0
  9 32  1  0
 10 33  1  0
 13 34  1  0
 16 35  1  0
 16 36  1  0
 17 37  1  0
 18 38  1  0
 18 39  1  0
 19 40  1  0
 19 41  1  0
 20 42  1  0
 20 43  1  0
 22 44  1  0
 22 45  1  0
M  END
>  <Energy>  (859) 
365.31362739387265

>  <compound_id>  (859) 
51917

>  <target_id>  (859) 
1

>  <reference_id>  (859) 
187

>  <inspiration_ids>  (859) 
[187, 28]

>  <energy_score>  (859) 
307.5235792765948

>  <distance_score>  (859) 
12.30479758959707

>  <path>  (859) 
/opt/xchem-fragalysis-2/maxwin/BulkDock/SCRATCH/511024/C51917-P187/C51917-P187.minimised.mol

>  <scratch_subdir>  (859) 
/opt/xchem-fragalysis-2/maxwin/BulkDock/SCRATCH/511024/C51917-P187

>  <fragmenstein_runtime>  (859) 
31.110447883605957

>  <fragmenstein_outcome>  (859) 
too moved

>  <fragmenstein_mode>  (859) 
expansion

>  <fragmenstein_error>  (859) 


$$$$
C51917-P28
     RDKit          3D

 45 46  0  0  0  0  0  0  0  0999 V2000
   -3.0549  -11.8666   24.3136 C   0  0  0  0  0  0  0  0  0  0  0  0
   -2.8563  -13.5152   24.5984 C   0  0  0  0  0  0  0  0  0  0  0  0
   -3.9711  -15.0629   23.7274 C   0  0  0  0  0  0  0  0  0  0  0  0
   -4.1511  -16.1711   22.0842 N   0  0  0  0  0  0  0  0  0  0  0  0
   -5.2758  -17.2945   21.6471 C   0  0  0  0  0  0  0  0  0  0  0  0
   -6.2495  -17.7246   22.2530 O   0  0  0  0  0  0  0  0  0  0  0  0
   -4.6565  -17.7789   20.1716 C   0  0  0  0  0  0  0  0  0  0  0  0
   -5.5058  -18.5676   19.5069 C   0  0  0  0  0  0  0  0  0  0  0  0
   -5.7914  -19.7368   20.1451 C   0  0  0  0  0  0  0  0  0  0  0  0
   -7.0651  -19.3103   20.3363 C   0  0  0  0  0  0  0  0  0  0  0  0
   -7.1748  -19.2804   18.6518 S   0  0  0  0  0  0  0  0  0  0  0  0
   -6.2363  -18.0353   18.5995 N   0  0  0  0  0  0  0  0  0  0  0  0
   -2.3763  -12.8137   26.3123 N   0  0  0  0  0  0  0  0  0  0  0  0
   -2.1249  -11.0772   26.8980 C   0  0  0  0  0  0  0  0  0  0  0  0
   -2.3870  -10.1694   26.1234 O   0  0  0  0  0  0  0  0  0  0  0  0
   -1.2565  -10.2916   28.5856 C   0  0  0  0  0  0  0  0  0  0  0  0
   -0.9501   -8.8954   29.8306 C   0  0  0  0  0  0  0  0  0  0  0  0
   -1.3563   -9.1182   31.3218 C   0  0  0  0  0  0  0  0  0  0  0  0
   -1.4357   -7.8038   32.0790 C   0  0  0  0  0  0  0  0  0  0  0  0
   -0.1118   -7.0796   32.0607 C   0  0  0  0  0  0  0  0  0  0  0  0
    0.8323   -7.8272   31.3106 O   0  0  0  0  0  0  0  0  0  0  0  0
    0.4099   -8.1429   29.9726 C   0  0  0  0  0  0  0  0  0  0  0  0
   -3.2916  -11.2184   23.4659 H   0  0  0  0  0  0  0  0  0  0  0  0
   -2.0438  -11.5205   24.1815 H   0  0  0  0  0  0  0  0  0  0  0  0
   -3.7556  -11.4783   25.0207 H   0  0  0  0  0  0  0  0  0  0  0  0
   -1.8429  -13.8150   24.2847 H   0  0  0  0  0  0  0  0  0  0  0  0
   -3.5093  -15.7533   24.4222 H   0  0  0  0  0  0  0  0  0  0  0  0
   -5.0045  -14.8118   23.8352 H   0  0  0  0  0  0  0  0  0  0  0  0
   -3.4173  -16.1192   21.3624 H   0  0  0  0  0  0  0  0  0  0  0  0
   -4.0649  -18.6614   20.2616 H   0  0  0  0  0  0  0  0  0  0  0  0
   -4.1427  -17.1023   19.4971 H   0  0  0  0  0  0  0  0  0  0  0  0
   -5.1608  -20.2674   20.8348 H   0  0  0  0  0  0  0  0  0  0  0  0
   -7.7202  -19.4139   21.1672 H   0  0  0  0  0  0  0  0  0  0  0  0
   -2.0413  -13.4355   27.0235 H   0  0  0  0  0  0  0  0  0  0  0  0
   -0.1462  -10.2304   28.4753 H   0  0  0  0  0  0  0  0  0  0  0  0
   -0.8214   -9.5057   27.9200 H   0  0  0  0  0  0  0  0  0  0  0  0
   -1.5189   -8.0487   29.4066 H   0  0  0  0  0  0  0  0  0  0  0  0
   -2.2685   -9.6608   31.4811 H   0  0  0  0  0  0  0  0  0  0  0  0
   -0.6336   -9.7087   31.8260 H   0  0  0  0  0  0  0  0  0  0  0  0
   -1.7642   -7.9640   33.1108 H   0  0  0  0  0  0  0  0  0  0  0  0
   -2.1784   -7.1737   31.6025 H   0  0  0  0  0  0  0  0  0  0  0  0
   -0.2089   -6.0713   31.6423 H   0  0  0  0  0  0  0  0  0  0  0  0
    0.2803   -6.9719   33.0771 H   0  0  0  0  0  0  0  0  0  0  0  0
    1.2081   -8.6334   29.4143 H   0  0  0  0  0  0  0  0  0  0  0  0
    0.2900   -7.1216   29.6321 H   0  0  0  0  0  0  0  0  0  0  0  0
  1  2  1  0
  2  3  1  0
  3  4  1  0
  4  5  1  0
  5  6  2  0
  5  7  1  0
  7  8  1  0
  8  9  1  0
  9 10  2  0
 10 11  1  0
 11 12  1  0
  2 13  1  0
 13 14  1  0
 14 15  2  0
 14 16  1  0
 16 17  1  0
 17 18  1  0
 18 19  1  0
 19 20  1  0
 20 21  1  0
 21 22  1  0
 12  8  2  0
 22 17  1  0
  1 23  1  0
  1 24  1  0
  1 25  1  0
  2 26  1  0
  3 27  1  0
  3 28  1  0
  4 29  1  0
  7 30  1  0
  7 31  1  0
  9 32  1  0
 10 33  1  0
 13 34  1  0
 16 35  1  0
 16 36  1  0
 17 37  1  0
 18 38  1  0
 18 39  1  0
 19 40  1  0
 19 41  1  0
 20 42  1  0
 20 43  1  0
 22 44  1  0
 22 45  1  0
M  END
>  <Energy>  (860) 
769.04240227685625

>  <compound_id>  (860) 
51917

>  <target_id>  (860) 
1

>  <reference_id>  (860) 
28

>  <inspiration_ids>  (860) 
[187, 28]

>  <energy_score>  (860) 
711.2523541595788

>  <distance_score>  (860) 
9.993815526297796

>  <path>  (860) 
/opt/xchem-fragalysis-2/maxwin/BulkDock/SCRATCH/511024/C51917-P28/C51917-P28.minimised.mol

>  <scratch_subdir>  (860) 
/opt/xchem-fragalysis-2/maxwin/BulkDock/SCRATCH/511024/C51917-P28

>  <fragmenstein_runtime>  (860) 
17.88267469406128

>  <fragmenstein_outcome>  (860) 
too moved

>  <fragmenstein_mode>  (860) 
expansion

>  <fragmenstein_error>  (860) 


$$$$
C51918-P187
     RDKit          3D

 46 48  0  0  0  0  0  0  0  0999 V2000
   -2.4264  -15.4028   25.4651 C   0  0  0  0  0  0  0  0  0  0  0  0
   -2.1063  -16.2973   26.6711 C   0  0  0  0  0  0  0  0  0  0  0  0
   -1.8272  -18.1957   26.2141 C   0  0  0  0  0  0  0  0  0  0  0  0
   -3.0821  -19.4585   25.7165 N   0  0  0  0  0  0  0  0  0  0  0  0
   -3.2170  -20.5646   24.2165 C   0  0  0  0  0  0  0  0  0  0  0  0
   -2.4419  -20.7355   23.2922 O   0  0  0  0  0  0  0  0  0  0  0  0
   -4.9593  -21.4500   24.6153 C   0  0  0  0  0  0  0  0  0  0  0  0
   -5.9186  -23.1506   24.5832 C   0  0  0  0  0  0  0  0  0  0  0  0
   -6.1360  -24.1748   23.5181 C   0  0  0  0  0  0  0  0  0  0  0  0
   -6.8765  -25.2504   23.9575 C   0  0  0  0  0  0  0  0  0  0  0  0
   -7.2831  -24.9825   25.5787 S   0  0  0  0  0  0  0  0  0  0  0  0
   -6.5529  -23.5035   25.7254 N   0  0  0  0  0  0  0  0  0  0  0  0
   -2.0363  -14.9628   27.9032 N   0  0  0  0  0  0  0  0  0  0  0  0
   -2.8652  -13.5116   27.9928 C   0  0  0  0  0  0  0  0  0  0  0  0
   -3.7499  -13.1440   27.2557 O   0  0  0  0  0  0  0  0  0  0  0  0
   -2.4169  -12.0921   29.2239 C   0  0  0  0  0  0  0  0  0  0  0  0
   -1.3767  -10.6197   30.0472 C   0  0  0  0  0  0  0  0  0  0  0  0
   -1.6327   -9.4817   31.3043 C   0  0  0  0  0  0  0  0  0  0  0  0
   -0.7111   -8.3327   31.0909 C   0  0  0  0  0  0  0  0  0  0  0  0
    0.0994   -7.6445   32.1900 C   0  0  0  0  0  0  0  0  0  0  0  0
   -1.0998   -6.9718   31.6566 C   0  0  0  0  0  0  0  0  0  0  0  0
   -0.2821   -8.4230   29.7034 C   0  0  0  0  0  0  0  0  0  0  0  0
   -0.7627   -9.6344   29.1015 O   0  0  0  0  0  0  0  0  0  0  0  0
   -1.6203  -15.4360   24.7375 H   0  0  0  0  0  0  0  0  0  0  0  0
   -3.3977  -15.6230   25.0394 H   0  0  0  0  0  0  0  0  0  0  0  0
   -2.4549  -14.3365   25.6888 H   0  0  0  0  0  0  0  0  0  0  0  0
   -1.0004  -16.2438   26.6942 H   0  0  0  0  0  0  0  0  0  0  0  0
   -0.8147  -18.3273   25.8408 H   0  0  0  0  0  0  0  0  0  0  0  0
   -1.7482  -18.5516   27.2543 H   0  0  0  0  0  0  0  0  0  0  0  0
   -3.9015  -19.4896   26.2199 H   0  0  0  0  0  0  0  0  0  0  0  0
   -5.2655  -20.9744   25.5346 H   0  0  0  0  0  0  0  0  0  0  0  0
   -5.5327  -21.2674   23.7250 H   0  0  0  0  0  0  0  0  0  0  0  0
   -5.7030  -24.1722   22.5317 H   0  0  0  0  0  0  0  0  0  0  0  0
   -7.1448  -26.1693   23.4603 H   0  0  0  0  0  0  0  0  0  0  0  0
   -1.3007  -14.9644   28.5916 H   0  0  0  0  0  0  0  0  0  0  0  0
   -3.4253  -11.9512   29.5912 H   0  0  0  0  0  0  0  0  0  0  0  0
   -2.3830  -11.4979   28.3101 H   0  0  0  0  0  0  0  0  0  0  0  0
   -0.5665  -11.1601   30.4891 H   0  0  0  0  0  0  0  0  0  0  0  0
   -1.4322   -9.7889   32.2861 H   0  0  0  0  0  0  0  0  0  0  0  0
   -2.6277   -9.0457   31.3887 H   0  0  0  0  0  0  0  0  0  0  0  0
    1.0441   -7.1728   31.9517 H   0  0  0  0  0  0  0  0  0  0  0  0
    0.0211   -7.9923   33.2137 H   0  0  0  0  0  0  0  0  0  0  0  0
   -0.9153   -6.0702   31.0856 H   0  0  0  0  0  0  0  0  0  0  0  0
   -1.9186   -6.9063   32.3559 H   0  0  0  0  0  0  0  0  0  0  0  0
   -0.8112   -7.6139   29.2101 H   0  0  0  0  0  0  0  0  0  0  0  0
    0.7925   -8.3434   29.5494 H   0  0  0  0  0  0  0  0  0  0  0  0
  1  2  1  0
  2  3  1  0
  3  4  1  0
  4  5  1  0
  5  6  2  0
  5  7  1  0
  7  8  1  0
  8  9  1  0
  9 10  2  0
 10 11  1  0
 11 12  1  0
  2 13  1  0
 13 14  1  0
 14 15  2  0
 14 16  1  0
 16 17  1  0
 17 18  1  0
 18 19  1  0
 19 20  1  0
 20 21  1  0
 19 22  1  0
 22 23  1  0
 12  8  2  0
 23 17  1  0
 21 19  1  0
  1 24  1  0
  1 25  1  0
  1 26  1  0
  2 27  1  0
  3 28  1  0
  3 29  1  0
  4 30  1  0
  7 31  1  0
  7 32  1  0
  9 33  1  0
 10 34  1  0
 13 35  1  0
 16 36  1  0
 16 37  1  0
 17 38  1  0
 18 39  1  0
 18 40  1  0
 20 41  1  0
 20 42  1  0
 21 43  1  0
 21 44  1  0
 22 45  1  0
 22 46  1  0
M  END
>  <Energy>  (861) 
622.37501086192367

>  <compound_id>  (861) 
51918

>  <target_id>  (861) 
1

>  <reference_id>  (861) 
187

>  <inspiration_ids>  (861) 
[187, 28]

>  <energy_score>  (861) 
533.6900799430273

>  <distance_score>  (861) 
11.06351437684787

>  <path>  (861) 
/opt/xchem-fragalysis-2/maxwin/BulkDock/SCRATCH/511024/C51918-P187/C51918-P187.minimised.mol

>  <scratch_subdir>  (861) 
/opt/xchem-fragalysis-2/maxwin/BulkDock/SCRATCH/511024/C51918-P187

>  <fragmenstein_runtime>  (861) 
20.972935676574707

>  <fragmenstein_outcome>  (861) 
too moved

>  <fragmenstein_mode>  (861) 
expansion

>  <fragmenstein_error>  (861) 


$$$$
C51918-P28
     RDKit          3D

 46 48  0  0  0  0  0  0  0  0999 V2000
   -4.9334  -16.8209   29.7886 C   0  0  0  0  0  0  0  0  0  0  0  0
   -5.1729  -16.3467   28.3258 C   0  0  0  0  0  0  0  0  0  0  0  0
   -5.5167  -18.0173   27.3395 C   0  0  0  0  0  0  0  0  0  0  0  0
   -6.0871  -19.0650   25.5291 N   0  0  0  0  0  0  0  0  0  0  0  0
   -6.4786  -18.8678   24.2630 C   0  0  0  0  0  0  0  0  0  0  0  0
   -6.3304  -17.2688   24.0439 O   0  0  0  0  0  0  0  0  0  0  0  0
   -7.3185  -19.7161   22.7412 C   0  0  0  0  0  0  0  0  0  0  0  0
   -8.8553  -20.9619   22.3660 C   0  0  0  0  0  0  0  0  0  0  0  0
   -9.6703  -21.3591   20.9177 C   0  0  0  0  0  0  0  0  0  0  0  0
  -11.0705  -21.5318   21.1081 C   0  0  0  0  0  0  0  0  0  0  0  0
  -11.3020  -21.5269   22.7884 S   0  0  0  0  0  0  0  0  0  0  0  0
   -9.6534  -21.7762   23.1270 N   0  0  0  0  0  0  0  0  0  0  0  0
   -4.0947  -14.9730   28.3431 N   0  0  0  0  0  0  0  0  0  0  0  0
   -4.3387  -13.4659   28.8010 C   0  0  0  0  0  0  0  0  0  0  0  0
   -5.3684  -12.9477   29.1573 O   0  0  0  0  0  0  0  0  0  0  0  0
   -2.8884  -12.2291   28.9960 C   0  0  0  0  0  0  0  0  0  0  0  0
   -1.7099  -10.8408   29.8743 C   0  0  0  0  0  0  0  0  0  0  0  0
   -0.5672   -9.4354   29.4773 C   0  0  0  0  0  0  0  0  0  0  0  0
   -0.6485   -8.4207   30.6030 C   0  0  0  0  0  0  0  0  0  0  0  0
   -0.8611   -6.9239   30.4875 C   0  0  0  0  0  0  0  0  0  0  0  0
    0.4834   -7.4390   30.8422 C   0  0  0  0  0  0  0  0  0  0  0  0
   -1.4158   -9.0497   31.6559 C   0  0  0  0  0  0  0  0  0  0  0  0
   -2.1766  -10.0728   31.0145 O   0  0  0  0  0  0  0  0  0  0  0  0
   -5.0056  -15.9869   30.4952 H   0  0  0  0  0  0  0  0  0  0  0  0
   -3.9354  -17.2607   29.8868 H   0  0  0  0  0  0  0  0  0  0  0  0
   -5.6750  -17.5677   30.0874 H   0  0  0  0  0  0  0  0  0  0  0  0
   -6.1604  -15.8572   28.4069 H   0  0  0  0  0  0  0  0  0  0  0  0
   -6.0787  -18.6162   28.1376 H   0  0  0  0  0  0  0  0  0  0  0  0
   -4.6585  -18.4005   27.9175 H   0  0  0  0  0  0  0  0  0  0  0  0
   -5.9297  -19.5648   26.3823 H   0  0  0  0  0  0  0  0  0  0  0  0
   -8.0851  -18.9655   22.8228 H   0  0  0  0  0  0  0  0  0  0  0  0
   -6.9451  -20.6486   23.1153 H   0  0  0  0  0  0  0  0  0  0  0  0
   -9.2440  -20.9952   19.9982 H   0  0  0  0  0  0  0  0  0  0  0  0
  -11.9116  -21.5467   20.4336 H   0  0  0  0  0  0  0  0  0  0  0  0
   -3.1044  -15.1161   28.1851 H   0  0  0  0  0  0  0  0  0  0  0  0
   -2.8607  -11.9529   27.9347 H   0  0  0  0  0  0  0  0  0  0  0  0
   -3.6626  -11.7067   29.5206 H   0  0  0  0  0  0  0  0  0  0  0  0
   -1.7644  -10.5996   28.8259 H   0  0  0  0  0  0  0  0  0  0  0  0
   -0.8132   -8.8916   28.5844 H   0  0  0  0  0  0  0  0  0  0  0  0
    0.4559   -9.7305   29.2781 H   0  0  0  0  0  0  0  0  0  0  0  0
   -1.3725   -6.3923   31.2843 H   0  0  0  0  0  0  0  0  0  0  0  0
   -1.0290   -6.4895   29.5229 H   0  0  0  0  0  0  0  0  0  0  0  0
    0.8268   -7.2880   31.8591 H   0  0  0  0  0  0  0  0  0  0  0  0
    1.2379   -7.2921   30.0831 H   0  0  0  0  0  0  0  0  0  0  0  0
   -2.1291   -8.3786   32.1459 H   0  0  0  0  0  0  0  0  0  0  0  0
   -0.7555   -9.3951   32.4285 H   0  0  0  0  0  0  0  0  0  0  0  0
  1  2  1  0
  2  3  1  0
  3  4  1  0
  4  5  1  0
  5  6  2  0
  5  7  1  0
  7  8  1  0
  8  9  1  0
  9 10  2  0
 10 11  1  0
 11 12  1  0
  2 13  1  0
 13 14  1  0
 14 15  2  0
 14 16  1  0
 16 17  1  0
 17 18  1  0
 18 19  1  0
 19 20  1  0
 20 21  1  0
 19 22  1  0
 22 23  1  0
 12  8  2  0
 23 17  1  0
 21 19  1  0
  1 24  1  0
  1 25  1  0
  1 26  1  0
  2 27  1  0
  3 28  1  0
  3 29  1  0
  4 30  1  0
  7 31  1  0
  7 32  1  0
  9 33  1  0
 10 34  1  0
 13 35  1  0
 16 36  1  0
 16 37  1  0
 17 38  1  0
 18 39  1  0
 18 40  1  0
 20 41  1  0
 20 42  1  0
 21 43  1  0
 21 44  1  0
 22 45  1  0
 22 46  1  0
M  END
>  <Energy>  (862) 
993.54569084023353

>  <compound_id>  (862) 
51918

>  <target_id>  (862) 
1

>  <reference_id>  (862) 
28

>  <inspiration_ids>  (862) 
[187, 28]

>  <energy_score>  (862) 
904.8607599213362

>  <distance_score>  (862) 
10.436641472257945

>  <path>  (862) 
/opt/xchem-fragalysis-2/maxwin/BulkDock/SCRATCH/511024/C51918-P28/C51918-P28.minimised.mol

>  <scratch_subdir>  (862) 
/opt/xchem-fragalysis-2/maxwin/BulkDock/SCRATCH/511024/C51918-P28

>  <fragmenstein_runtime>  (862) 
20.00513005256653

>  <fragmenstein_outcome>  (862) 
too moved

>  <fragmenstein_mode>  (862) 
expansion

>  <fragmenstein_error>  (862) 


$$$$
C51919-P187
     RDKit          3D

 45 46  0  0  0  0  0  0  0  0999 V2000
   -3.2406   -7.5382   26.9252 C   0  0  0  0  0  0  0  0  0  0  0  0
   -4.7366   -8.1153   28.0126 C   0  0  0  0  0  0  0  0  0  0  0  0
   -6.3548   -9.2222   27.2329 C   0  0  0  0  0  0  0  0  0  0  0  0
   -6.5654  -11.0457   26.5714 N   0  0  0  0  0  0  0  0  0  0  0  0
   -7.7065  -12.3286   27.0181 C   0  0  0  0  0  0  0  0  0  0  0  0
   -8.5534  -12.2328   27.8893 O   0  0  0  0  0  0  0  0  0  0  0  0
   -7.7155  -14.2016   26.2610 C   0  0  0  0  0  0  0  0  0  0  0  0
   -8.0369  -15.7001   24.9198 C   0  0  0  0  0  0  0  0  0  0  0  0
   -7.0591  -17.1889   23.8111 C   0  0  0  0  0  0  0  0  0  0  0  0
   -6.9921  -17.9653   22.6374 C   0  0  0  0  0  0  0  0  0  0  0  0
   -8.0508  -16.8921   22.2832 S   0  0  0  0  0  0  0  0  0  0  0  0
   -7.2830  -15.2848   23.9094 N   0  0  0  0  0  0  0  0  0  0  0  0
   -3.6470   -7.7316   29.6141 N   0  0  0  0  0  0  0  0  0  0  0  0
   -1.9864   -7.4759   29.7994 C   0  0  0  0  0  0  0  0  0  0  0  0
   -1.1199   -7.3899   28.9768 O   0  0  0  0  0  0  0  0  0  0  0  0
   -1.6429   -7.4662   31.3074 C   0  0  0  0  0  0  0  0  0  0  0  0
   -0.1600   -7.2181   31.6152 C   0  0  0  0  0  0  0  0  0  0  0  0
    0.1077   -7.3322   33.1217 C   0  0  0  0  0  0  0  0  0  0  0  0
   -0.3801   -6.1281   33.9120 C   0  0  0  0  0  0  0  0  0  0  0  0
    0.1465   -4.8453   33.2944 C   0  0  0  0  0  0  0  0  0  0  0  0
   -0.1456   -4.8035   31.8046 C   0  0  0  0  0  0  0  0  0  0  0  0
    0.3441   -5.9650   31.1415 O   0  0  0  0  0  0  0  0  0  0  0  0
   -2.7937   -6.6139   26.6394 H   0  0  0  0  0  0  0  0  0  0  0  0
   -2.4478   -7.4856   27.6188 H   0  0  0  0  0  0  0  0  0  0  0  0
   -3.1295   -8.1200   25.9852 H   0  0  0  0  0  0  0  0  0  0  0  0
   -5.6655   -7.5900   28.4179 H   0  0  0  0  0  0  0  0  0  0  0  0
   -7.1428   -9.1876   27.9955 H   0  0  0  0  0  0  0  0  0  0  0  0
   -6.6747   -8.6607   26.3495 H   0  0  0  0  0  0  0  0  0  0  0  0
   -6.0276  -11.3458   25.7694 H   0  0  0  0  0  0  0  0  0  0  0  0
   -7.0850  -13.6810   25.5959 H   0  0  0  0  0  0  0  0  0  0  0  0
   -8.7354  -14.3836   26.6270 H   0  0  0  0  0  0  0  0  0  0  0  0
   -6.7101  -18.1096   24.2754 H   0  0  0  0  0  0  0  0  0  0  0  0
   -6.7653  -18.9375   22.2686 H   0  0  0  0  0  0  0  0  0  0  0  0
   -4.0853   -7.8419   30.5262 H   0  0  0  0  0  0  0  0  0  0  0  0
   -1.9535   -8.4258   31.7323 H   0  0  0  0  0  0  0  0  0  0  0  0
   -2.1691   -6.6845   31.8093 H   0  0  0  0  0  0  0  0  0  0  0  0
    0.4104   -7.9864   31.0897 H   0  0  0  0  0  0  0  0  0  0  0  0
    1.1875   -7.4045   33.2864 H   0  0  0  0  0  0  0  0  0  0  0  0
   -0.3600   -8.2313   33.5262 H   0  0  0  0  0  0  0  0  0  0  0  0
   -0.0498   -6.2053   34.9541 H   0  0  0  0  0  0  0  0  0  0  0  0
   -1.4723   -6.1167   33.9295 H   0  0  0  0  0  0  0  0  0  0  0  0
    1.2323   -4.8040   33.4466 H   0  0  0  0  0  0  0  0  0  0  0  0
   -0.2882   -3.9730   33.7935 H   0  0  0  0  0  0  0  0  0  0  0  0
    0.3529   -3.9369   31.3580 H   0  0  0  0  0  0  0  0  0  0  0  0
   -1.2148   -4.6847   31.6104 H   0  0  0  0  0  0  0  0  0  0  0  0
  1  2  1  0
  2  3  1  0
  3  4  1  0
  4  5  1  0
  5  6  2  0
  5  7  1  0
  7  8  1  0
  8  9  1  0
  9 10  2  0
 10 11  1  0
 11 12  1  0
  2 13  1  0
 13 14  1  0
 14 15  2  0
 14 16  1  0
 16 17  1  0
 17 18  1  0
 18 19  1  0
 19 20  1  0
 20 21  1  0
 21 22  1  0
 12  8  2  0
 22 17  1  0
  1 23  1  0
  1 24  1  0
  1 25  1  0
  2 26  1  0
  3 27  1  0
  3 28  1  0
  4 29  1  0
  7 30  1  0
  7 31  1  0
  9 32  1  0
 10 33  1  0
 13 34  1  0
 16 35  1  0
 16 36  1  0
 17 37  1  0
 18 38  1  0
 18 39  1  0
 19 40  1  0
 19 41  1  0
 20 42  1  0
 20 43  1  0
 21 44  1  0
 21 45  1  0
M  END
>  <Energy>  (863) 
1061.331217189919

>  <compound_id>  (863) 
51919

>  <target_id>  (863) 
1

>  <reference_id>  (863) 
187

>  <inspiration_ids>  (863) 
[187, 28]

>  <energy_score>  (863) 
1006.6007809843478

>  <distance_score>  (863) 
10.293867365222477

>  <path>  (863) 
/opt/xchem-fragalysis-2/maxwin/BulkDock/SCRATCH/511024/C51919-P187/C51919-P187.minimised.mol

>  <scratch_subdir>  (863) 
/opt/xchem-fragalysis-2/maxwin/BulkDock/SCRATCH/511024/C51919-P187

>  <fragmenstein_runtime>  (863) 
39.42641806602478

>  <fragmenstein_outcome>  (863) 
too moved

>  <fragmenstein_mode>  (863) 
expansion

>  <fragmenstein_error>  (863) 


$$$$
C51919-P28
     RDKit          3D

 45 46  0  0  0  0  0  0  0  0999 V2000
   -3.0748  -11.4895   24.9118 C   0  0  0  0  0  0  0  0  0  0  0  0
   -2.5542  -12.7315   25.7722 C   0  0  0  0  0  0  0  0  0  0  0  0
   -2.6838  -14.2561   24.3682 C   0  0  0  0  0  0  0  0  0  0  0  0
   -4.2006  -15.2888   23.5929 N   0  0  0  0  0  0  0  0  0  0  0  0
   -4.3248  -16.3205   22.0356 C   0  0  0  0  0  0  0  0  0  0  0  0
   -3.4640  -16.4743   21.1407 O   0  0  0  0  0  0  0  0  0  0  0  0
   -5.8406  -17.4138   21.7267 C   0  0  0  0  0  0  0  0  0  0  0  0
   -5.9372  -18.0884   20.4680 C   0  0  0  0  0  0  0  0  0  0  0  0
   -6.6011  -19.2447   20.4198 C   0  0  0  0  0  0  0  0  0  0  0  0
   -5.4308  -19.8734   20.0866 C   0  0  0  0  0  0  0  0  0  0  0  0
   -5.1660  -19.0515   18.6289 S   0  0  0  0  0  0  0  0  0  0  0  0
   -5.8024  -17.7068   19.2155 N   0  0  0  0  0  0  0  0  0  0  0  0
   -2.6212  -12.0307   27.5793 N   0  0  0  0  0  0  0  0  0  0  0  0
   -1.6212  -10.7195   28.4067 C   0  0  0  0  0  0  0  0  0  0  0  0
   -0.8133  -10.0516   27.8336 O   0  0  0  0  0  0  0  0  0  0  0  0
   -1.5533  -10.3247   30.1492 C   0  0  0  0  0  0  0  0  0  0  0  0
   -1.0692   -8.6032   30.5826 C   0  0  0  0  0  0  0  0  0  0  0  0
   -1.4068   -8.3455   32.0535 C   0  0  0  0  0  0  0  0  0  0  0  0
   -1.0075   -6.9584   32.5403 C   0  0  0  0  0  0  0  0  0  0  0  0
    0.4248   -6.6435   32.1600 C   0  0  0  0  0  0  0  0  0  0  0  0
    0.5817   -6.8709   30.6695 C   0  0  0  0  0  0  0  0  0  0  0  0
    0.3042   -8.2368   30.3348 O   0  0  0  0  0  0  0  0  0  0  0  0
   -2.5531  -11.4812   23.9524 H   0  0  0  0  0  0  0  0  0  0  0  0
   -2.7710  -10.4950   25.2421 H   0  0  0  0  0  0  0  0  0  0  0  0
   -4.1426  -11.4564   24.7169 H   0  0  0  0  0  0  0  0  0  0  0  0
   -3.0728  -13.4347   26.3879 H   0  0  0  0  0  0  0  0  0  0  0  0
   -3.3703  -13.5077   24.1153 H   0  0  0  0  0  0  0  0  0  0  0  0
   -1.8242  -14.2070   23.6930 H   0  0  0  0  0  0  0  0  0  0  0  0
   -5.0772  -15.2926   24.0736 H   0  0  0  0  0  0  0  0  0  0  0  0
   -6.0209  -18.0561   22.5941 H   0  0  0  0  0  0  0  0  0  0  0  0
   -6.8513  -16.9958   21.5227 H   0  0  0  0  0  0  0  0  0  0  0  0
   -7.3609  -19.4134   21.1595 H   0  0  0  0  0  0  0  0  0  0  0  0
   -4.8880  -20.7146   20.4802 H   0  0  0  0  0  0  0  0  0  0  0  0
   -3.2952  -12.4043   28.2401 H   0  0  0  0  0  0  0  0  0  0  0  0
   -0.4920  -10.2971   30.0859 H   0  0  0  0  0  0  0  0  0  0  0  0
   -1.4479  -10.9760   30.9771 H   0  0  0  0  0  0  0  0  0  0  0  0
   -1.6013   -7.8834   29.9455 H   0  0  0  0  0  0  0  0  0  0  0  0
   -0.8318   -9.0425   32.6526 H   0  0  0  0  0  0  0  0  0  0  0  0
   -2.4668   -8.5178   32.2423 H   0  0  0  0  0  0  0  0  0  0  0  0
   -1.1430   -6.8815   33.6244 H   0  0  0  0  0  0  0  0  0  0  0  0
   -1.6453   -6.2071   32.0753 H   0  0  0  0  0  0  0  0  0  0  0  0
    1.1020   -7.2960   32.7198 H   0  0  0  0  0  0  0  0  0  0  0  0
    0.6680   -5.6074   32.4171 H   0  0  0  0  0  0  0  0  0  0  0  0
    1.6030   -6.6392   30.3568 H   0  0  0  0  0  0  0  0  0  0  0  0
   -0.0816   -6.2057   30.1055 H   0  0  0  0  0  0  0  0  0  0  0  0
  1  2  1  0
  2  3  1  0
  3  4  1  0
  4  5  1  0
  5  6  2  0
  5  7  1  0
  7  8  1  0
  8  9  1  0
  9 10  2  0
 10 11  1  0
 11 12  1  0
  2 13  1  0
 13 14  1  0
 14 15  2  0
 14 16  1  0
 16 17  1  0
 17 18  1  0
 18 19  1  0
 19 20  1  0
 20 21  1  0
 21 22  1  0
 12  8  2  0
 22 17  1  0
  1 23  1  0
  1 24  1  0
  1 25  1  0
  2 26  1  0
  3 27  1  0
  3 28  1  0
  4 29  1  0
  7 30  1  0
  7 31  1  0
  9 32  1  0
 10 33  1  0
 13 34  1  0
 16 35  1  0
 16 36  1  0
 17 37  1  0
 18 38  1  0
 18 39  1  0
 19 40  1  0
 19 41  1  0
 20 42  1  0
 20 43  1  0
 21 44  1  0
 21 45  1  0
M  END
>  <Energy>  (864) 
679.99816895381355

>  <compound_id>  (864) 
51919

>  <target_id>  (864) 
1

>  <reference_id>  (864) 
28

>  <inspiration_ids>  (864) 
[187, 28]

>  <energy_score>  (864) 
625.2677327482353

>  <distance_score>  (864) 
9.850394420372993

>  <path>  (864) 
/opt/xchem-fragalysis-2/maxwin/BulkDock/SCRATCH/511024/C51919-P28/C51919-P28.minimised.mol

>  <scratch_subdir>  (864) 
/opt/xchem-fragalysis-2/maxwin/BulkDock/SCRATCH/511024/C51919-P28

>  <fragmenstein_runtime>  (864) 
25.501858234405518

>  <fragmenstein_outcome>  (864) 
too moved

>  <fragmenstein_mode>  (864) 
expansion

>  <fragmenstein_error>  (864) 


$$$$
C51920-P187
     RDKit          3D

 44 45  0  0  0  0  0  0  0  0999 V2000
   -1.3758   -2.6637   27.9391 C   0  0  0  0  0  0  0  0  0  0  0  0
   -1.0107   -4.2006   27.5528 C   0  0  0  0  0  0  0  0  0  0  0  0
   -1.7857   -5.2873   26.0385 C   0  0  0  0  0  0  0  0  0  0  0  0
   -1.9070   -5.5114   24.2904 N   0  0  0  0  0  0  0  0  0  0  0  0
   -2.4500   -6.7027   23.4680 C   0  0  0  0  0  0  0  0  0  0  0  0
   -2.8410   -7.7872   23.8294 O   0  0  0  0  0  0  0  0  0  0  0  0
   -2.5394   -6.5665   21.9055 C   0  0  0  0  0  0  0  0  0  0  0  0
   -3.1520   -7.8973   21.1618 C   0  0  0  0  0  0  0  0  0  0  0  0
   -2.6162   -9.2555   21.1848 C   0  0  0  0  0  0  0  0  0  0  0  0
   -3.3610  -10.1329   20.4133 C   0  0  0  0  0  0  0  0  0  0  0  0
   -4.6715   -9.2733   19.7458 S   0  0  0  0  0  0  0  0  0  0  0  0
   -4.2390   -7.7835   20.3757 N   0  0  0  0  0  0  0  0  0  0  0  0
    0.3112   -4.4272   28.2358 N   0  0  0  0  0  0  0  0  0  0  0  0
    0.8703   -3.8461   29.4401 C   0  0  0  0  0  0  0  0  0  0  0  0
    0.4565   -2.9767   30.1545 O   0  0  0  0  0  0  0  0  0  0  0  0
    2.1498   -4.5894   29.8510 C   0  0  0  0  0  0  0  0  0  0  0  0
    1.9513   -5.4739   31.0212 N   0  0  0  0  0  0  0  0  0  0  0  0
    2.0979   -4.8063   32.3292 C   0  0  0  0  0  0  0  0  0  0  0  0
    0.8035   -4.3601   33.0327 C   0  0  0  0  0  0  0  0  0  0  0  0
   -0.1561   -5.4199   33.0684 O   0  0  0  0  0  0  0  0  0  0  0  0
   -0.4855   -5.7992   31.7347 C   0  0  0  0  0  0  0  0  0  0  0  0
    0.7545   -6.3349   31.0097 C   0  0  0  0  0  0  0  0  0  0  0  0
   -0.4884   -2.0216   27.8816 H   0  0  0  0  0  0  0  0  0  0  0  0
   -2.1550   -2.1785   27.3420 H   0  0  0  0  0  0  0  0  0  0  0  0
   -1.7254   -2.6264   28.9792 H   0  0  0  0  0  0  0  0  0  0  0  0
   -1.5461   -4.7264   28.3471 H   0  0  0  0  0  0  0  0  0  0  0  0
   -2.5862   -4.6342   25.9057 H   0  0  0  0  0  0  0  0  0  0  0  0
   -2.2559   -6.2286   26.4295 H   0  0  0  0  0  0  0  0  0  0  0  0
   -1.7462   -4.7193   23.6704 H   0  0  0  0  0  0  0  0  0  0  0  0
   -1.5326   -6.4072   21.5068 H   0  0  0  0  0  0  0  0  0  0  0  0
   -3.1819   -5.7139   21.6638 H   0  0  0  0  0  0  0  0  0  0  0  0
   -1.7455   -9.5480   21.7553 H   0  0  0  0  0  0  0  0  0  0  0  0
   -3.2194  -11.1889   20.2444 H   0  0  0  0  0  0  0  0  0  0  0  0
    0.8925   -5.1991   27.9408 H   0  0  0  0  0  0  0  0  0  0  0  0
    2.9376   -3.8492   30.0344 H   0  0  0  0  0  0  0  0  0  0  0  0
    2.5245   -5.2041   29.0251 H   0  0  0  0  0  0  0  0  0  0  0  0
    2.5733   -5.5481   32.9849 H   0  0  0  0  0  0  0  0  0  0  0  0
    2.8037   -3.9691   32.2777 H   0  0  0  0  0  0  0  0  0  0  0  0
    0.3595   -3.4786   32.5613 H   0  0  0  0  0  0  0  0  0  0  0  0
    1.0296   -4.0898   34.0696 H   0  0  0  0  0  0  0  0  0  0  0  0
   -0.9399   -4.9513   31.2150 H   0  0  0  0  0  0  0  0  0  0  0  0
   -1.2373   -6.5923   31.7961 H   0  0  0  0  0  0  0  0  0  0  0  0
    0.5040   -6.6610   29.9965 H   0  0  0  0  0  0  0  0  0  0  0  0
    1.0276   -7.2437   31.5532 H   0  0  0  0  0  0  0  0  0  0  0  0
  1  2  1  0
  2  3  1  0
  3  4  1  0
  4  5  1  0
  5  6  2  0
  5  7  1  0
  7  8  1  0
  8  9  1  0
  9 10  2  0
 10 11  1  0
 11 12  1  0
  2 13  1  0
 13 14  1  0
 14 15  2  0
 14 16  1  0
 16 17  1  0
 17 18  1  0
 18 19  1  0
 19 20  1  0
 20 21  1  0
 21 22  1  0
 12  8  2  0
 22 17  1  0
  1 23  1  0
  1 24  1  0
  1 25  1  0
  2 26  1  0
  3 27  1  0
  3 28  1  0
  4 29  1  0
  7 30  1  0
  7 31  1  0
  9 32  1  0
 10 33  1  0
 13 34  1  0
 16 35  1  0
 16 36  1  0
 18 37  1  0
 18 38  1  0
 19 39  1  0
 19 40  1  0
 21 41  1  0
 21 42  1  0
 22 43  1  0
 22 44  1  0
M  END
>  <Energy>  (865) 
285.55460714073763

>  <compound_id>  (865) 
51920

>  <target_id>  (865) 
1

>  <reference_id>  (865) 
187

>  <inspiration_ids>  (865) 
[187, 28]

>  <energy_score>  (865) 
119.2568988198409

>  <distance_score>  (865) 
12.748953154445946

>  <path>  (865) 
/opt/xchem-fragalysis-2/maxwin/BulkDock/SCRATCH/511024/C51920-P187/C51920-P187.minimised.mol

>  <scratch_subdir>  (865) 
/opt/xchem-fragalysis-2/maxwin/BulkDock/SCRATCH/511024/C51920-P187

>  <fragmenstein_runtime>  (865) 
27.17173671722412

>  <fragmenstein_outcome>  (865) 
too moved

>  <fragmenstein_mode>  (865) 
expansion

>  <fragmenstein_error>  (865) 


$$$$
C51920-P28
     RDKit          3D

 44 45  0  0  0  0  0  0  0  0999 V2000
   -8.5910   -8.8543   27.6864 C   0  0  0  0  0  0  0  0  0  0  0  0
   -7.8980  -10.0620   28.3060 C   0  0  0  0  0  0  0  0  0  0  0  0
   -8.9070  -11.1492   28.9155 C   0  0  0  0  0  0  0  0  0  0  0  0
  -10.0335  -11.7871   28.1688 N   0  0  0  0  0  0  0  0  0  0  0  0
  -10.5930  -13.1679   28.2420 C   0  0  0  0  0  0  0  0  0  0  0  0
  -10.2221  -14.1279   28.8615 O   0  0  0  0  0  0  0  0  0  0  0  0
  -11.9519  -13.2879   27.4283 C   0  0  0  0  0  0  0  0  0  0  0  0
  -12.4630  -14.6538   26.8231 C   0  0  0  0  0  0  0  0  0  0  0  0
  -13.5625  -14.7395   25.8608 C   0  0  0  0  0  0  0  0  0  0  0  0
  -13.7416  -16.0170   25.3675 C   0  0  0  0  0  0  0  0  0  0  0  0
  -12.6703  -17.0341   26.1965 S   0  0  0  0  0  0  0  0  0  0  0  0
  -11.8959  -15.8414   27.0632 N   0  0  0  0  0  0  0  0  0  0  0  0
   -6.8787   -9.6541   29.3766 N   0  0  0  0  0  0  0  0  0  0  0  0
   -5.6812   -8.3228   29.4114 C   0  0  0  0  0  0  0  0  0  0  0  0
   -5.5964   -7.4901   28.5643 O   0  0  0  0  0  0  0  0  0  0  0  0
   -4.4799   -8.5801   31.1409 C   0  0  0  0  0  0  0  0  0  0  0  0
   -2.8124   -8.2013   31.3014 N   0  0  0  0  0  0  0  0  0  0  0  0
   -2.1760   -8.4676   32.5905 C   0  0  0  0  0  0  0  0  0  0  0  0
   -1.3411   -7.3440   33.2507 C   0  0  0  0  0  0  0  0  0  0  0  0
   -1.2282   -6.1670   32.4538 O   0  0  0  0  0  0  0  0  0  0  0  0
   -0.8256   -6.4975   31.1354 C   0  0  0  0  0  0  0  0  0  0  0  0
   -1.7896   -7.4966   30.4555 C   0  0  0  0  0  0  0  0  0  0  0  0
   -7.8753   -8.0886   27.3748 H   0  0  0  0  0  0  0  0  0  0  0  0
   -9.3214   -8.4023   28.3630 H   0  0  0  0  0  0  0  0  0  0  0  0
   -9.1460   -9.1659   26.7943 H   0  0  0  0  0  0  0  0  0  0  0  0
   -7.3332  -10.5621   27.5126 H   0  0  0  0  0  0  0  0  0  0  0  0
   -9.3915  -10.6908   29.7864 H   0  0  0  0  0  0  0  0  0  0  0  0
   -8.3078  -11.9781   29.3123 H   0  0  0  0  0  0  0  0  0  0  0  0
  -10.5518  -11.2542   27.4826 H   0  0  0  0  0  0  0  0  0  0  0  0
  -12.7367  -12.9478   28.1174 H   0  0  0  0  0  0  0  0  0  0  0  0
  -11.9217  -12.5673   26.6020 H   0  0  0  0  0  0  0  0  0  0  0  0
  -14.1390  -13.8858   25.5302 H   0  0  0  0  0  0  0  0  0  0  0  0
  -14.4399  -16.3800   24.6280 H   0  0  0  0  0  0  0  0  0  0  0  0
   -6.7055  -10.2751   30.1481 H   0  0  0  0  0  0  0  0  0  0  0  0
   -4.9579   -9.2828   31.7526 H   0  0  0  0  0  0  0  0  0  0  0  0
   -4.8851   -8.0821   32.0330 H   0  0  0  0  0  0  0  0  0  0  0  0
   -2.8622   -8.8256   33.3494 H   0  0  0  0  0  0  0  0  0  0  0  0
   -1.4749   -9.2733   32.3753 H   0  0  0  0  0  0  0  0  0  0  0  0
   -0.3329   -7.7087   33.4822 H   0  0  0  0  0  0  0  0  0  0  0  0
   -1.7955   -7.0462   34.2010 H   0  0  0  0  0  0  0  0  0  0  0  0
   -0.7590   -5.5690   30.5614 H   0  0  0  0  0  0  0  0  0  0  0  0
    0.1898   -6.9131   31.1756 H   0  0  0  0  0  0  0  0  0  0  0  0
   -1.0869   -8.2729   30.1010 H   0  0  0  0  0  0  0  0  0  0  0  0
   -2.1796   -7.1286   29.5100 H   0  0  0  0  0  0  0  0  0  0  0  0
  1  2  1  0
  2  3  1  0
  3  4  1  0
  4  5  1  0
  5  6  2  0
  5  7  1  0
  7  8  1  0
  8  9  1  0
  9 10  2  0
 10 11  1  0
 11 12  1  0
  2 13  1  0
 13 14  1  0
 14 15  2  0
 14 16  1  0
 16 17  1  0
 17 18  1  0
 18 19  1  0
 19 20  1  0
 20 21  1  0
 21 22  1  0
 12  8  2  0
 22 17  1  0
  1 23  1  0
  1 24  1  0
  1 25  1  0
  2 26  1  0
  3 27  1  0
  3 28  1  0
  4 29  1  0
  7 30  1  0
  7 31  1  0
  9 32  1  0
 10 33  1  0
 13 34  1  0
 16 35  1  0
 16 36  1  0
 18 37  1  0
 18 38  1  0
 19 39  1  0
 19 40  1  0
 21 41  1  0
 21 42  1  0
 22 43  1  0
 22 44  1  0
M  END
>  <Energy>  (866) 
352.54970846414261

>  <compound_id>  (866) 
51920

>  <target_id>  (866) 
1

>  <reference_id>  (866) 
28

>  <inspiration_ids>  (866) 
[187, 28]

>  <energy_score>  (866) 
186.25200014324378

>  <distance_score>  (866) 
12.155909926071663

>  <path>  (866) 
/opt/xchem-fragalysis-2/maxwin/BulkDock/SCRATCH/511024/C51920-P28/C51920-P28.minimised.mol

>  <scratch_subdir>  (866) 
/opt/xchem-fragalysis-2/maxwin/BulkDock/SCRATCH/511024/C51920-P28

>  <fragmenstein_runtime>  (866) 
19.468700647354126

>  <fragmenstein_outcome>  (866) 
too moved

>  <fragmenstein_mode>  (866) 
expansion

>  <fragmenstein_error>  (866) 


$$$$
C52456-P40
     RDKit          3D

 49 51  0  0  0  0  0  0  0  0999 V2000
    5.9347   -6.6776   29.6594 O   0  0  0  0  0  0  0  0  0  0  0  0
    6.4327   -6.2557   28.6302 C   0  0  0  0  0  0  0  0  0  0  0  0
    7.3428   -5.2654   28.6555 O   0  0  0  0  0  0  0  0  0  0  0  0
    6.1325   -6.7401   27.2426 C   0  0  0  0  0  0  0  0  0  0  0  0
    5.2606   -5.7348   26.4692 C   0  0  0  0  0  0  0  0  0  0  0  0
    5.2425   -6.1222   24.9382 C   0  0  0  0  0  0  0  0  0  0  0  0
    5.9483   -4.9920   24.0619 C   0  0  0  0  0  0  0  0  0  0  0  0
    6.8969   -5.2353   22.8551 N   0  0  0  0  0  0  0  0  0  0  0  0
    7.5037   -4.0959   21.5364 C   0  0  0  0  0  0  0  0  0  0  0  0
    7.1098   -2.9816   21.4225 O   0  0  0  0  0  0  0  0  0  0  0  0
    8.7718   -4.3529   20.4606 O   0  0  0  0  0  0  0  0  0  0  0  0
   10.4247   -5.1932   20.7602 C   0  0  0  0  0  0  0  0  0  0  0  0
   11.8447   -4.5368   21.1927 C   0  0  0  0  0  0  0  0  0  0  0  0
   12.0909   -3.8593   22.3847 C   0  0  0  0  0  0  0  0  0  0  0  0
   13.3428   -3.2712   22.6348 C   0  0  0  0  0  0  0  0  0  0  0  0
   14.3842   -3.3652   21.7171 C   0  0  0  0  0  0  0  0  0  0  0  0
   14.1804   -4.0521   20.5354 C   0  0  0  0  0  0  0  0  0  0  0  0
   12.9336   -4.6257   20.2851 C   0  0  0  0  0  0  0  0  0  0  0  0
    3.9070   -5.4806   27.1312 C   0  0  0  0  0  0  0  0  0  0  0  0
    3.0765   -6.5307   27.5576 C   0  0  0  0  0  0  0  0  0  0  0  0
    1.9363   -6.3188   28.3390 C   0  0  0  0  0  0  0  0  0  0  0  0
    1.5383   -5.0344   28.6905 C   0  0  0  0  0  0  0  0  0  0  0  0
    2.3007   -3.9527   28.2356 C   0  0  0  0  0  0  0  0  0  0  0  0
    2.1667   -2.5496   28.3855 C   0  0  0  0  0  0  0  0  0  0  0  0
    3.2281   -1.9610   27.7439 C   0  0  0  0  0  0  0  0  0  0  0  0
    4.0011   -2.9540   27.2098 N   0  0  0  0  0  0  0  0  0  0  0  0
    3.4511   -4.1922   27.4795 C   0  0  0  0  0  0  0  0  0  0  0  0
    7.4273   -5.0352   29.6045 H   0  0  0  0  0  0  0  0  0  0  0  0
    7.0935   -6.8968   26.7361 H   0  0  0  0  0  0  0  0  0  0  0  0
    5.6638   -7.7259   27.3124 H   0  0  0  0  0  0  0  0  0  0  0  0
    5.7953   -4.7800   26.5523 H   0  0  0  0  0  0  0  0  0  0  0  0
    5.8036   -7.0511   24.7786 H   0  0  0  0  0  0  0  0  0  0  0  0
    4.2216   -6.3381   24.6397 H   0  0  0  0  0  0  0  0  0  0  0  0
    6.7993   -4.9915   24.7599 H   0  0  0  0  0  0  0  0  0  0  0  0
    5.6699   -3.9584   24.2939 H   0  0  0  0  0  0  0  0  0  0  0  0
    7.2768   -6.1189   22.7193 H   0  0  0  0  0  0  0  0  0  0  0  0
   10.5165   -5.4537   19.7194 H   0  0  0  0  0  0  0  0  0  0  0  0
   10.4436   -6.1943   21.1864 H   0  0  0  0  0  0  0  0  0  0  0  0
   11.3306   -3.7131   23.1421 H   0  0  0  0  0  0  0  0  0  0  0  0
   13.4882   -2.7129   23.5578 H   0  0  0  0  0  0  0  0  0  0  0  0
   15.3412   -2.8970   21.9261 H   0  0  0  0  0  0  0  0  0  0  0  0
   14.9725   -4.1330   19.7964 H   0  0  0  0  0  0  0  0  0  0  0  0
   12.8143   -5.0857   19.3153 H   0  0  0  0  0  0  0  0  0  0  0  0
    3.3473   -7.5463   27.2845 H   0  0  0  0  0  0  0  0  0  0  0  0
    1.3326   -7.1554   28.6727 H   0  0  0  0  0  0  0  0  0  0  0  0
    0.6499   -4.8650   29.2911 H   0  0  0  0  0  0  0  0  0  0  0  0
    1.3753   -2.0233   28.9038 H   0  0  0  0  0  0  0  0  0  0  0  0
    3.4963   -0.9205   27.6154 H   0  0  0  0  0  0  0  0  0  0  0  0
    4.8482   -2.7984   26.6781 H   0  0  0  0  0  0  0  0  0  0  0  0
  1  2  2  0
  2  3  1  0
  2  4  1  0
  4  5  1  0
  5  6  1  0
  6  7  1  0
  7  8  1  0
  8  9  1  0
  9 10  2  0
  9 11  1  0
 11 12  1  0
 12 13  1  0
 13 14  2  0
 14 15  1  0
 15 16  2  0
 16 17  1  0
 17 18  2  0
  5 19  1  0
 19 20  2  0
 20 21  1  0
 21 22  2  0
 22 23  1  0
 23 24  1  0
 24 25  2  0
 25 26  1  0
 26 27  1  0
 18 13  1  0
 27 19  1  0
 27 23  2  0
  3 28  1  0
  4 29  1  0
  4 30  1  0
  5 31  1  0
  6 32  1  0
  6 33  1  0
  7 34  1  0
  7 35  1  0
  8 36  1  0
 12 37  1  0
 12 38  1  0
 14 39  1  0
 15 40  1  0
 16 41  1  0
 17 42  1  0
 18 43  1  0
 20 44  1  0
 21 45  1  0
 22 46  1  0
 24 47  1  0
 25 48  1  0
 26 49  1  0
M  END
>  <Energy>  (867) 
189.10068787619986

>  <compound_id>  (867) 
52456

>  <target_id>  (867) 
1

>  <reference_id>  (867) 
40

>  <inspiration_ids>  (867) 
[40, 76]

>  <energy_score>  (867) 
187.34981807185477

>  <distance_score>  (867) 
6.1167143794210554

>  <path>  (867) 
/opt/xchem-fragalysis-2/maxwin/BulkDock/SCRATCH/511024/C52456-P40/C52456-P40.minimised.mol

>  <scratch_subdir>  (867) 
/opt/xchem-fragalysis-2/maxwin/BulkDock/SCRATCH/511024/C52456-P40

>  <fragmenstein_runtime>  (867) 
16.363531351089478

>  <fragmenstein_outcome>  (867) 
too moved

>  <fragmenstein_mode>  (867) 
expansion

>  <fragmenstein_error>  (867) 


$$$$
C52456-P76
     RDKit          3D

 49 51  0  0  0  0  0  0  0  0999 V2000
   -3.5264  -17.2111   37.8601 O   0  0  0  0  0  0  0  0  0  0  0  0
   -2.7974  -16.2586   37.6432 C   0  0  0  0  0  0  0  0  0  0  0  0
   -2.6596  -15.2789   38.5563 O   0  0  0  0  0  0  0  0  0  0  0  0
   -1.9983  -16.0127   36.3975 C   0  0  0  0  0  0  0  0  0  0  0  0
   -2.8936  -15.6920   35.1830 C   0  0  0  0  0  0  0  0  0  0  0  0
   -4.2493  -14.6722   35.4695 C   0  0  0  0  0  0  0  0  0  0  0  0
   -4.4444  -12.9690   35.9611 C   0  0  0  0  0  0  0  0  0  0  0  0
   -3.5311  -11.6583   35.1497 N   0  0  0  0  0  0  0  0  0  0  0  0
   -3.6465  -10.0385   35.2487 C   0  0  0  0  0  0  0  0  0  0  0  0
   -4.3384   -9.3336   35.9707 O   0  0  0  0  0  0  0  0  0  0  0  0
   -2.7003   -9.4559   34.3117 O   0  0  0  0  0  0  0  0  0  0  0  0
   -2.4536   -7.9893   34.3050 C   0  0  0  0  0  0  0  0  0  0  0  0
   -1.6825   -7.3128   33.0865 C   0  0  0  0  0  0  0  0  0  0  0  0
   -1.6547   -7.8208   31.7876 C   0  0  0  0  0  0  0  0  0  0  0  0
   -0.9548   -7.1772   30.7243 C   0  0  0  0  0  0  0  0  0  0  0  0
   -0.2907   -5.9730   30.9203 C   0  0  0  0  0  0  0  0  0  0  0  0
   -0.3327   -5.4157   32.1876 C   0  0  0  0  0  0  0  0  0  0  0  0
   -1.0167   -6.0739   33.2444 C   0  0  0  0  0  0  0  0  0  0  0  0
   -2.0772  -15.7541   33.7880 C   0  0  0  0  0  0  0  0  0  0  0  0
   -2.7010  -16.5328   32.7777 C   0  0  0  0  0  0  0  0  0  0  0  0
   -2.2042  -16.6971   31.4749 C   0  0  0  0  0  0  0  0  0  0  0  0
   -1.0515  -16.0457   31.0572 C   0  0  0  0  0  0  0  0  0  0  0  0
   -0.3306  -15.3129   32.0044 C   0  0  0  0  0  0  0  0  0  0  0  0
    0.8530  -14.5281   31.8810 C   0  0  0  0  0  0  0  0  0  0  0  0
    1.2286  -14.1815   33.1486 C   0  0  0  0  0  0  0  0  0  0  0  0
    0.3507  -14.8014   34.0024 N   0  0  0  0  0  0  0  0  0  0  0  0
   -0.7796  -15.2747   33.3444 C   0  0  0  0  0  0  0  0  0  0  0  0
   -3.2312  -15.5720   39.2983 H   0  0  0  0  0  0  0  0  0  0  0  0
   -1.4267  -16.9314   36.2069 H   0  0  0  0  0  0  0  0  0  0  0  0
   -1.2352  -15.2627   36.6038 H   0  0  0  0  0  0  0  0  0  0  0  0
   -3.4596  -16.6387   35.1098 H   0  0  0  0  0  0  0  0  0  0  0  0
   -4.8889  -14.8276   34.6082 H   0  0  0  0  0  0  0  0  0  0  0  0
   -4.7951  -15.1796   36.2792 H   0  0  0  0  0  0  0  0  0  0  0  0
   -4.2309  -12.9831   37.0326 H   0  0  0  0  0  0  0  0  0  0  0  0
   -5.5175  -12.9059   35.7393 H   0  0  0  0  0  0  0  0  0  0  0  0
   -2.9323  -11.9037   34.3954 H   0  0  0  0  0  0  0  0  0  0  0  0
   -3.4082   -7.4914   34.4432 H   0  0  0  0  0  0  0  0  0  0  0  0
   -1.8565   -7.7867   35.1984 H   0  0  0  0  0  0  0  0  0  0  0  0
   -2.1563   -8.7711   31.6277 H   0  0  0  0  0  0  0  0  0  0  0  0
   -0.8928   -7.6449   29.7461 H   0  0  0  0  0  0  0  0  0  0  0  0
    0.2602   -5.4981   30.1167 H   0  0  0  0  0  0  0  0  0  0  0  0
    0.1800   -4.4792   32.3907 H   0  0  0  0  0  0  0  0  0  0  0  0
   -1.0189   -5.5940   34.2239 H   0  0  0  0  0  0  0  0  0  0  0  0
   -3.6481  -17.0276   33.0016 H   0  0  0  0  0  0  0  0  0  0  0  0
   -2.7644  -17.3010   30.7640 H   0  0  0  0  0  0  0  0  0  0  0  0
   -0.7132  -16.1243   30.0288 H   0  0  0  0  0  0  0  0  0  0  0  0
    1.3923  -14.3108   30.9688 H   0  0  0  0  0  0  0  0  0  0  0  0
    2.0849  -13.6424   33.5306 H   0  0  0  0  0  0  0  0  0  0  0  0
    0.4827  -14.8457   35.0021 H   0  0  0  0  0  0  0  0  0  0  0  0
  1  2  2  0
  2  3  1  0
  2  4  1  0
  4  5  1  0
  5  6  1  0
  6  7  1  0
  7  8  1  0
  8  9  1  0
  9 10  2  0
  9 11  1  0
 11 12  1  0
 12 13  1  0
 13 14  2  0
 14 15  1  0
 15 16  2  0
 16 17  1  0
 17 18  2  0
  5 19  1  0
 19 20  2  0
 20 21  1  0
 21 22  2  0
 22 23  1  0
 23 24  1  0
 24 25  2  0
 25 26  1  0
 26 27  1  0
 18 13  1  0
 27 19  1  0
 27 23  2  0
  3 28  1  0
  4 29  1  0
  4 30  1  0
  5 31  1  0
  6 32  1  0
  6 33  1  0
  7 34  1  0
  7 35  1  0
  8 36  1  0
 12 37  1  0
 12 38  1  0
 14 39  1  0
 15 40  1  0
 16 41  1  0
 17 42  1  0
 18 43  1  0
 20 44  1  0
 21 45  1  0
 22 46  1  0
 24 47  1  0
 25 48  1  0
 26 49  1  0
M  END
>  <Energy>  (868) 
87.335325638660805

>  <compound_id>  (868) 
52456

>  <target_id>  (868) 
1

>  <reference_id>  (868) 
76

>  <inspiration_ids>  (868) 
[40, 76]

>  <energy_score>  (868) 
85.58445583432206

>  <distance_score>  (868) 
16.214214636370247

>  <path>  (868) 
/opt/xchem-fragalysis-2/maxwin/BulkDock/SCRATCH/511024/C52456-P76/C52456-P76.minimised.mol

>  <scratch_subdir>  (868) 
/opt/xchem-fragalysis-2/maxwin/BulkDock/SCRATCH/511024/C52456-P76

>  <fragmenstein_runtime>  (868) 
27.92496156692505

>  <fragmenstein_outcome>  (868) 
too moved

>  <fragmenstein_mode>  (868) 
expansion

>  <fragmenstein_error>  (868) 


$$$$
C52457-P40
     RDKit          3D

 52 54  0  0  0  0  0  0  0  0999 V2000
   -0.0202   -0.7904   27.9620 C   0  0  0  0  0  0  0  0  0  0  0  0
    0.7146   -1.9720   28.3491 N   0  0  0  0  0  0  0  0  0  0  0  0
    0.0438   -3.1082   28.7442 C   0  0  0  0  0  0  0  0  0  0  0  0
    0.9567   -4.1026   28.9401 C   0  0  0  0  0  0  0  0  0  0  0  0
    2.2333   -3.5525   28.6647 C   0  0  0  0  0  0  0  0  0  0  0  0
    3.5010   -4.1555   28.6909 C   0  0  0  0  0  0  0  0  0  0  0  0
    4.6179   -3.3988   28.3933 C   0  0  0  0  0  0  0  0  0  0  0  0
    4.4797   -2.0498   28.0960 C   0  0  0  0  0  0  0  0  0  0  0  0
    3.2346   -1.3562   28.0626 C   0  0  0  0  0  0  0  0  0  0  0  0
    3.3908    0.1678   27.7401 C   0  0  0  0  0  0  0  0  0  0  0  0
    3.6040    0.4320   26.2023 C   0  0  0  0  0  0  0  0  0  0  0  0
    3.6379    1.9096   25.6423 C   0  0  0  0  0  0  0  0  0  0  0  0
    3.8043    2.0283   24.1708 N   0  0  0  0  0  0  0  0  0  0  0  0
    3.9575    3.1884   23.3251 C   0  0  0  0  0  0  0  0  0  0  0  0
    3.9104    4.3544   23.5852 O   0  0  0  0  0  0  0  0  0  0  0  0
    4.2619    2.7671   22.0218 O   0  0  0  0  0  0  0  0  0  0  0  0
    4.4842    3.7746   20.9558 C   0  0  0  0  0  0  0  0  0  0  0  0
    5.6213    3.5182   19.9123 C   0  0  0  0  0  0  0  0  0  0  0  0
    6.0516    2.2424   19.5458 C   0  0  0  0  0  0  0  0  0  0  0  0
    7.1273    1.9954   18.6777 C   0  0  0  0  0  0  0  0  0  0  0  0
    7.8282    3.0606   18.1403 C   0  0  0  0  0  0  0  0  0  0  0  0
    7.4233    4.3544   18.4614 C   0  0  0  0  0  0  0  0  0  0  0  0
    6.3292    4.5794   19.3251 C   0  0  0  0  0  0  0  0  0  0  0  0
    2.3936    1.1046   28.4315 C   0  0  0  0  0  0  0  0  0  0  0  0
    3.0015    2.4184   28.8563 C   0  0  0  0  0  0  0  0  0  0  0  0
    4.1613    2.7745   28.7554 O   0  0  0  0  0  0  0  0  0  0  0  0
    2.0782    3.2414   29.3932 O   0  0  0  0  0  0  0  0  0  0  0  0
    2.0899   -2.1801   28.3330 C   0  0  0  0  0  0  0  0  0  0  0  0
    0.4761   -0.3202   27.1175 H   0  0  0  0  0  0  0  0  0  0  0  0
   -1.0328   -1.0711   27.6579 H   0  0  0  0  0  0  0  0  0  0  0  0
   -0.0819   -0.1257   28.8255 H   0  0  0  0  0  0  0  0  0  0  0  0
   -1.0363   -3.1108   28.8204 H   0  0  0  0  0  0  0  0  0  0  0  0
    0.7377   -5.1159   29.2420 H   0  0  0  0  0  0  0  0  0  0  0  0
    3.6106   -5.2066   28.9365 H   0  0  0  0  0  0  0  0  0  0  0  0
    5.6053   -3.8536   28.3944 H   0  0  0  0  0  0  0  0  0  0  0  0
    5.3993   -1.5025   27.8761 H   0  0  0  0  0  0  0  0  0  0  0  0
    4.3623    0.4250   28.1892 H   0  0  0  0  0  0  0  0  0  0  0  0
    4.5561   -0.0332   25.9090 H   0  0  0  0  0  0  0  0  0  0  0  0
    2.8602   -0.1399   25.6610 H   0  0  0  0  0  0  0  0  0  0  0  0
    2.7121    2.4377   25.8888 H   0  0  0  0  0  0  0  0  0  0  0  0
    4.4702    2.4589   26.0929 H   0  0  0  0  0  0  0  0  0  0  0  0
    3.9902    1.1876   23.6193 H   0  0  0  0  0  0  0  0  0  0  0  0
    3.5446    3.8331   20.3954 H   0  0  0  0  0  0  0  0  0  0  0  0
    4.6726    4.7506   21.4158 H   0  0  0  0  0  0  0  0  0  0  0  0
    5.5746    1.4030   20.0109 H   0  0  0  0  0  0  0  0  0  0  0  0
    7.4090    0.9709   18.4576 H   0  0  0  0  0  0  0  0  0  0  0  0
    8.6795    2.8985   17.4861 H   0  0  0  0  0  0  0  0  0  0  0  0
    7.9641    5.2043   18.0511 H   0  0  0  0  0  0  0  0  0  0  0  0
    6.0620    5.6070   19.5663 H   0  0  0  0  0  0  0  0  0  0  0  0
    2.0162    0.6434   29.3505 H   0  0  0  0  0  0  0  0  0  0  0  0
    1.5642    1.3464   27.7628 H   0  0  0  0  0  0  0  0  0  0  0  0
    2.5844    4.0494   29.6245 H   0  0  0  0  0  0  0  0  0  0  0  0
  1  2  1  0
  2  3  1  0
  3  4  2  0
  4  5  1  0
  5  6  2  0
  6  7  1  0
  7  8  2  0
  8  9  1  0
  9 10  1  0
 10 11  1  0
 11 12  1  0
 12 13  1  0
 13 14  1  0
 14 15  2  0
 14 16  1  0
 16 17  1  0
 17 18  1  0
 18 19  2  0
 19 20  1  0
 20 21  2  0
 21 22  1  0
 22 23  2  0
 10 24  1  0
 24 25  1  0
 25 26  2  0
 25 27  1  0
  9 28  2  0
 28  2  1  0
 28  5  1  0
 23 18  1  0
  1 29  1  0
  1 30  1  0
  1 31  1  0
  3 32  1  0
  4 33  1  0
  6 34  1  0
  7 35  1  0
  8 36  1  0
 10 37  1  0
 11 38  1  0
 11 39  1  0
 12 40  1  0
 12 41  1  0
 13 42  1  0
 17 43  1  0
 17 44  1  0
 19 45  1  0
 20 46  1  0
 21 47  1  0
 22 48  1  0
 23 49  1  0
 24 50  1  0
 24 51  1  0
 27 52  1  0
M  END
>  <Energy>  (869) 
-14.583477756969838

>  <compound_id>  (869) 
52457

>  <target_id>  (869) 
1

>  <reference_id>  (869) 
40

>  <inspiration_ids>  (869) 
[40, 76]

>  <energy_score>  (869) 
-26.034960453742315

>  <distance_score>  (869) 
7.837392244636888

>  <path>  (869) 
/opt/xchem-fragalysis-2/maxwin/BulkDock/SCRATCH/511024/C52457-P40/C52457-P40.minimised.mol

>  <scratch_subdir>  (869) 
/opt/xchem-fragalysis-2/maxwin/BulkDock/SCRATCH/511024/C52457-P40

>  <fragmenstein_runtime>  (869) 
35.71479773521423

>  <fragmenstein_outcome>  (869) 
too moved

>  <fragmenstein_mode>  (869) 
expansion

>  <fragmenstein_error>  (869) 


$$$$
C52457-P76
     RDKit          3D

 52 54  0  0  0  0  0  0  0  0999 V2000
    0.5895   -1.0748   27.8856 C   0  0  0  0  0  0  0  0  0  0  0  0
    1.0534   -2.3368   28.4104 N   0  0  0  0  0  0  0  0  0  0  0  0
    0.1811   -3.2680   28.9215 C   0  0  0  0  0  0  0  0  0  0  0  0
    0.8745   -4.0255   29.8280 C   0  0  0  0  0  0  0  0  0  0  0  0
    2.2279   -3.5954   29.7863 C   0  0  0  0  0  0  0  0  0  0  0  0
    3.3520   -3.9780   30.5357 C   0  0  0  0  0  0  0  0  0  0  0  0
    4.5939   -3.4498   30.2101 C   0  0  0  0  0  0  0  0  0  0  0  0
    4.7310   -2.6136   29.1045 C   0  0  0  0  0  0  0  0  0  0  0  0
    3.6391   -2.1972   28.2958 C   0  0  0  0  0  0  0  0  0  0  0  0
    4.0113   -1.3845   27.0182 C   0  0  0  0  0  0  0  0  0  0  0  0
    3.2387   -1.8120   25.7365 C   0  0  0  0  0  0  0  0  0  0  0  0
    3.9381   -2.2866   24.3986 C   0  0  0  0  0  0  0  0  0  0  0  0
    4.4888   -1.3013   23.5009 N   0  0  0  0  0  0  0  0  0  0  0  0
    5.2918   -1.4814   22.0328 C   0  0  0  0  0  0  0  0  0  0  0  0
    5.6490   -2.4868   21.4600 O   0  0  0  0  0  0  0  0  0  0  0  0
    5.6472    0.0175   21.2299 O   0  0  0  0  0  0  0  0  0  0  0  0
    6.7198    0.4218   20.0565 C   0  0  0  0  0  0  0  0  0  0  0  0
    6.6791    0.9820   18.6065 C   0  0  0  0  0  0  0  0  0  0  0  0
    6.0464    0.3760   17.5157 C   0  0  0  0  0  0  0  0  0  0  0  0
    6.2903    0.7921   16.1990 C   0  0  0  0  0  0  0  0  0  0  0  0
    7.1712    1.8368   15.9384 C   0  0  0  0  0  0  0  0  0  0  0  0
    7.8204    2.4621   16.9942 C   0  0  0  0  0  0  0  0  0  0  0  0
    7.5864    2.0299   18.3044 C   0  0  0  0  0  0  0  0  0  0  0  0
    3.8573    0.1257   27.2686 C   0  0  0  0  0  0  0  0  0  0  0  0
    5.0255    0.7272   28.0093 C   0  0  0  0  0  0  0  0  0  0  0  0
    5.9142    1.3695   27.4689 O   0  0  0  0  0  0  0  0  0  0  0  0
    4.9848    0.5361   29.3460 O   0  0  0  0  0  0  0  0  0  0  0  0
    2.3611   -2.6473   28.7513 C   0  0  0  0  0  0  0  0  0  0  0  0
   -0.4843   -1.1256   27.6903 H   0  0  0  0  0  0  0  0  0  0  0  0
    1.1185   -0.8398   26.9739 H   0  0  0  0  0  0  0  0  0  0  0  0
    0.7787   -0.3062   28.6401 H   0  0  0  0  0  0  0  0  0  0  0  0
   -0.8730   -3.2431   28.6756 H   0  0  0  0  0  0  0  0  0  0  0  0
    0.4609   -4.7909   30.4722 H   0  0  0  0  0  0  0  0  0  0  0  0
    3.2479   -4.6775   31.3605 H   0  0  0  0  0  0  0  0  0  0  0  0
    5.4723   -3.7307   30.7856 H   0  0  0  0  0  0  0  0  0  0  0  0
    5.7420   -2.3002   28.8324 H   0  0  0  0  0  0  0  0  0  0  0  0
    5.0726   -1.5600   26.8112 H   0  0  0  0  0  0  0  0  0  0  0  0
    2.6229   -2.6588   26.0359 H   0  0  0  0  0  0  0  0  0  0  0  0
    2.5911   -0.9904   25.4516 H   0  0  0  0  0  0  0  0  0  0  0  0
    4.7335   -2.8892   24.6891 H   0  0  0  0  0  0  0  0  0  0  0  0
    3.1690   -2.7874   23.8228 H   0  0  0  0  0  0  0  0  0  0  0  0
    4.2600   -0.3164   23.6529 H   0  0  0  0  0  0  0  0  0  0  0  0
    7.1374    1.3068   20.5537 H   0  0  0  0  0  0  0  0  0  0  0  0
    7.4330   -0.4083   20.0141 H   0  0  0  0  0  0  0  0  0  0  0  0
    5.3733   -0.4639   17.6494 H   0  0  0  0  0  0  0  0  0  0  0  0
    5.7771    0.2973   15.3762 H   0  0  0  0  0  0  0  0  0  0  0  0
    7.3422    2.1668   14.9168 H   0  0  0  0  0  0  0  0  0  0  0  0
    8.5160    3.2762   16.8042 H   0  0  0  0  0  0  0  0  0  0  0  0
    8.1455    2.5171   19.1031 H   0  0  0  0  0  0  0  0  0  0  0  0
    2.9397    0.3831   27.8051 H   0  0  0  0  0  0  0  0  0  0  0  0
    3.8086    0.6645   26.3130 H   0  0  0  0  0  0  0  0  0  0  0  0
    4.2470   -0.0365   29.6375 H   0  0  0  0  0  0  0  0  0  0  0  0
  1  2  1  0
  2  3  1  0
  3  4  2  0
  4  5  1  0
  5  6  2  0
  6  7  1  0
  7  8  2  0
  8  9  1  0
  9 10  1  0
 10 11  1  0
 11 12  1  0
 12 13  1  0
 13 14  1  0
 14 15  2  0
 14 16  1  0
 16 17  1  0
 17 18  1  0
 18 19  2  0
 19 20  1  0
 20 21  2  0
 21 22  1  0
 22 23  2  0
 10 24  1  0
 24 25  1  0
 25 26  2  0
 25 27  1  0
  9 28  2  0
 28  2  1  0
 28  5  1  0
 23 18  1  0
  1 29  1  0
  1 30  1  0
  1 31  1  0
  3 32  1  0
  4 33  1  0
  6 34  1  0
  7 35  1  0
  8 36  1  0
 10 37  1  0
 11 38  1  0
 11 39  1  0
 12 40  1  0
 12 41  1  0
 13 42  1  0
 17 43  1  0
 17 44  1  0
 19 45  1  0
 20 46  1  0
 21 47  1  0
 22 48  1  0
 23 49  1  0
 24 50  1  0
 24 51  1  0
 27 52  1  0
M  END
>  <Energy>  (870) 
104.80154326628748

>  <compound_id>  (870) 
52457

>  <target_id>  (870) 
1

>  <reference_id>  (870) 
76

>  <inspiration_ids>  (870) 
[40, 76]

>  <energy_score>  (870) 
93.35006056951619

>  <distance_score>  (870) 
6.828078337246356

>  <path>  (870) 
/opt/xchem-fragalysis-2/maxwin/BulkDock/SCRATCH/511024/C52457-P76/C52457-P76.minimised.mol

>  <scratch_subdir>  (870) 
/opt/xchem-fragalysis-2/maxwin/BulkDock/SCRATCH/511024/C52457-P76

>  <fragmenstein_runtime>  (870) 
28.472363471984863

>  <fragmenstein_outcome>  (870) 
too moved

>  <fragmenstein_mode>  (870) 
expansion

>  <fragmenstein_error>  (870) 


$$$$
C52461-P40
     RDKit          3D

 41 43  0  0  0  0  0  0  0  0999 V2000
   11.5574   -3.6288   22.2078 C   0  0  0  0  0  0  0  0  0  0  0  0
   10.9566   -4.7429   21.4105 N   0  0  0  0  0  0  0  0  0  0  0  0
    9.3432   -4.7433   20.5435 C   0  0  0  0  0  0  0  0  0  0  0  0
    7.5709   -4.2950   21.6100 C   0  0  0  0  0  0  0  0  0  0  0  0
    7.0380   -3.2610   21.1847 O   0  0  0  0  0  0  0  0  0  0  0  0
    7.0703   -5.2933   23.0988 N   0  0  0  0  0  0  0  0  0  0  0  0
    6.0994   -6.4239   22.9678 C   0  0  0  0  0  0  0  0  0  0  0  0
    5.8482   -4.9698   24.3357 C   0  0  0  0  0  0  0  0  0  0  0  0
    5.4846   -3.6792   24.8379 C   0  0  0  0  0  0  0  0  0  0  0  0
    4.6030   -3.4088   25.9249 C   0  0  0  0  0  0  0  0  0  0  0  0
    4.0893   -4.4689   26.6672 C   0  0  0  0  0  0  0  0  0  0  0  0
    3.1536   -4.6035   27.7263 C   0  0  0  0  0  0  0  0  0  0  0  0
    3.1460   -5.9271   28.1028 C   0  0  0  0  0  0  0  0  0  0  0  0
    4.0831   -6.5764   27.3431 N   0  0  0  0  0  0  0  0  0  0  0  0
    4.6144   -5.7216   26.4073 C   0  0  0  0  0  0  0  0  0  0  0  0
    5.5562   -5.9543   25.3739 C   0  0  0  0  0  0  0  0  0  0  0  0
   12.1968   -5.3082   20.9183 C   0  0  0  0  0  0  0  0  0  0  0  0
   12.8841   -6.1735   21.7940 C   0  0  0  0  0  0  0  0  0  0  0  0
   14.2610   -6.4117   21.6653 C   0  0  0  0  0  0  0  0  0  0  0  0
   14.9888   -5.8179   20.6380 C   0  0  0  0  0  0  0  0  0  0  0  0
   14.3405   -4.9858   19.7420 C   0  0  0  0  0  0  0  0  0  0  0  0
   12.9714   -4.7307   19.8860 C   0  0  0  0  0  0  0  0  0  0  0  0
   12.2764   -4.0221   22.9446 H   0  0  0  0  0  0  0  0  0  0  0  0
   12.1285   -2.9384   21.5878 H   0  0  0  0  0  0  0  0  0  0  0  0
   10.8957   -3.0922   22.8739 H   0  0  0  0  0  0  0  0  0  0  0  0
    8.9152   -3.9077   20.0379 H   0  0  0  0  0  0  0  0  0  0  0  0
    9.6862   -5.5117   19.8163 H   0  0  0  0  0  0  0  0  0  0  0  0
    6.3205   -6.8637   22.0193 H   0  0  0  0  0  0  0  0  0  0  0  0
    5.0773   -6.6311   23.2933 H   0  0  0  0  0  0  0  0  0  0  0  0
    6.6398   -7.1301   23.6124 H   0  0  0  0  0  0  0  0  0  0  0  0
    5.7958   -2.7795   24.3116 H   0  0  0  0  0  0  0  0  0  0  0  0
    4.3329   -2.3798   26.1460 H   0  0  0  0  0  0  0  0  0  0  0  0
    2.5701   -3.8083   28.1736 H   0  0  0  0  0  0  0  0  0  0  0  0
    2.5925   -6.4381   28.8747 H   0  0  0  0  0  0  0  0  0  0  0  0
    4.3467   -7.5470   27.4232 H   0  0  0  0  0  0  0  0  0  0  0  0
    6.0081   -6.9424   25.3666 H   0  0  0  0  0  0  0  0  0  0  0  0
   12.3584   -6.6001   22.6438 H   0  0  0  0  0  0  0  0  0  0  0  0
   14.7628   -7.0628   22.3757 H   0  0  0  0  0  0  0  0  0  0  0  0
   16.0496   -6.0197   20.5270 H   0  0  0  0  0  0  0  0  0  0  0  0
   14.8890   -4.5321   18.9219 H   0  0  0  0  0  0  0  0  0  0  0  0
   12.5588   -4.0208   19.1833 H   0  0  0  0  0  0  0  0  0  0  0  0
  1  2  1  0
  2  3  1  0
  3  4  1  0
  4  5  2  0
  4  6  1  0
  6  7  1  0
  6  8  1  0
  8  9  2  0
  9 10  1  0
 10 11  2  0
 11 12  1  0
 12 13  2  0
 13 14  1  0
 14 15  1  0
 15 16  2  0
  2 17  1  0
 17 18  2  0
 18 19  1  0
 19 20  2  0
 20 21  1  0
 21 22  2  0
 16  8  1  0
 22 17  1  0
 15 11  1  0
  1 23  1  0
  1 24  1  0
  1 25  1  0
  3 26  1  0
  3 27  1  0
  7 28  1  0
  7 29  1  0
  7 30  1  0
  9 31  1  0
 10 32  1  0
 12 33  1  0
 13 34  1  0
 14 35  1  0
 16 36  1  0
 18 37  1  0
 19 38  1  0
 20 39  1  0
 21 40  1  0
 22 41  1  0
M  END
>  <Energy>  (871) 
470.44899782130881

>  <compound_id>  (871) 
52461

>  <target_id>  (871) 
1

>  <reference_id>  (871) 
40

>  <inspiration_ids>  (871) 
[40, 76]

>  <energy_score>  (871) 
360.1278166841398

>  <distance_score>  (871) 
6.942957919671746

>  <path>  (871) 
/opt/xchem-fragalysis-2/maxwin/BulkDock/SCRATCH/511024/C52461-P40/C52461-P40.minimised.mol

>  <scratch_subdir>  (871) 
/opt/xchem-fragalysis-2/maxwin/BulkDock/SCRATCH/511024/C52461-P40

>  <fragmenstein_runtime>  (871) 
14.197443008422852

>  <fragmenstein_outcome>  (871) 
too moved

>  <fragmenstein_mode>  (871) 
expansion

>  <fragmenstein_error>  (871) 


$$$$
C52461-P76
     RDKit          3D

 41 43  0  0  0  0  0  0  0  0999 V2000
    7.9866   -4.5226   20.2350 C   0  0  0  0  0  0  0  0  0  0  0  0
    6.8868   -5.3934   19.9335 N   0  0  0  0  0  0  0  0  0  0  0  0
    6.8763   -6.3906   21.6824 C   0  0  0  0  0  0  0  0  0  0  0  0
    6.6122   -6.9053   23.4759 C   0  0  0  0  0  0  0  0  0  0  0  0
    5.4674   -6.7366   23.7841 O   0  0  0  0  0  0  0  0  0  0  0  0
    7.8342   -7.5151   24.5783 N   0  0  0  0  0  0  0  0  0  0  0  0
    7.9758   -9.1064   24.5703 C   0  0  0  0  0  0  0  0  0  0  0  0
    7.7592   -7.8616   26.2015 C   0  0  0  0  0  0  0  0  0  0  0  0
    6.6520   -8.5046   26.7972 C   0  0  0  0  0  0  0  0  0  0  0  0
    6.4832   -8.6405   28.1765 C   0  0  0  0  0  0  0  0  0  0  0  0
    7.2845   -7.8387   28.9921 C   0  0  0  0  0  0  0  0  0  0  0  0
    7.2743   -7.5280   30.3760 C   0  0  0  0  0  0  0  0  0  0  0  0
    8.2322   -6.5671   30.5889 C   0  0  0  0  0  0  0  0  0  0  0  0
    8.8668   -6.3295   29.3999 N   0  0  0  0  0  0  0  0  0  0  0  0
    8.3255   -7.1149   28.4074 C   0  0  0  0  0  0  0  0  0  0  0  0
    8.6626   -7.1936   27.0430 C   0  0  0  0  0  0  0  0  0  0  0  0
    5.8927   -5.4699   18.5869 C   0  0  0  0  0  0  0  0  0  0  0  0
    6.0751   -6.0863   17.3663 C   0  0  0  0  0  0  0  0  0  0  0  0
    5.0926   -6.8261   16.5997 C   0  0  0  0  0  0  0  0  0  0  0  0
    3.7485   -6.6756   16.7972 C   0  0  0  0  0  0  0  0  0  0  0  0
    3.4129   -5.8119   17.7843 C   0  0  0  0  0  0  0  0  0  0  0  0
    4.4514   -5.3274   18.6261 C   0  0  0  0  0  0  0  0  0  0  0  0
    7.8796   -3.9265   21.1338 H   0  0  0  0  0  0  0  0  0  0  0  0
    8.9476   -4.9926   20.0460 H   0  0  0  0  0  0  0  0  0  0  0  0
    8.5412   -3.9940   19.5671 H   0  0  0  0  0  0  0  0  0  0  0  0
    7.4823   -5.6089   22.1720 H   0  0  0  0  0  0  0  0  0  0  0  0
    6.8032   -7.2799   21.1280 H   0  0  0  0  0  0  0  0  0  0  0  0
    7.2183   -9.7238   25.0604 H   0  0  0  0  0  0  0  0  0  0  0  0
    8.9921   -9.3728   24.8997 H   0  0  0  0  0  0  0  0  0  0  0  0
    7.8577   -9.4956   23.6212 H   0  0  0  0  0  0  0  0  0  0  0  0
    5.8442   -8.8280   26.1608 H   0  0  0  0  0  0  0  0  0  0  0  0
    5.6592   -9.2199   28.5711 H   0  0  0  0  0  0  0  0  0  0  0  0
    6.6229   -7.9245   31.1419 H   0  0  0  0  0  0  0  0  0  0  0  0
    8.5282   -6.0391   31.4863 H   0  0  0  0  0  0  0  0  0  0  0  0
    9.6149   -5.6622   29.2610 H   0  0  0  0  0  0  0  0  0  0  0  0
    9.4703   -6.5934   26.6330 H   0  0  0  0  0  0  0  0  0  0  0  0
    6.9820   -6.0572   16.8340 H   0  0  0  0  0  0  0  0  0  0  0  0
    5.4182   -7.4367   15.7554 H   0  0  0  0  0  0  0  0  0  0  0  0
    3.0124   -7.1679   16.1748 H   0  0  0  0  0  0  0  0  0  0  0  0
    2.3759   -5.6020   18.0267 H   0  0  0  0  0  0  0  0  0  0  0  0
    4.0385   -4.8815   19.4930 H   0  0  0  0  0  0  0  0  0  0  0  0
  1  2  1  0
  2  3  1  0
  3  4  1  0
  4  5  2  0
  4  6  1  0
  6  7  1  0
  6  8  1  0
  8  9  2  0
  9 10  1  0
 10 11  2  0
 11 12  1  0
 12 13  2  0
 13 14  1  0
 14 15  1  0
 15 16  2  0
  2 17  1  0
 17 18  2  0
 18 19  1  0
 19 20  2  0
 20 21  1  0
 21 22  2  0
 16  8  1  0
 22 17  1  0
 15 11  1  0
  1 23  1  0
  1 24  1  0
  1 25  1  0
  3 26  1  0
  3 27  1  0
  7 28  1  0
  7 29  1  0
  7 30  1  0
  9 31  1  0
 10 32  1  0
 12 33  1  0
 13 34  1  0
 14 35  1  0
 16 36  1  0
 18 37  1  0
 19 38  1  0
 20 39  1  0
 21 40  1  0
 22 41  1  0
M  END
>  <Energy>  (872) 
562.64832386451565

>  <compound_id>  (872) 
52461

>  <target_id>  (872) 
1

>  <reference_id>  (872) 
76

>  <inspiration_ids>  (872) 
[40, 76]

>  <energy_score>  (872) 
452.3271427273489

>  <distance_score>  (872) 
8.311431637288745

>  <path>  (872) 
/opt/xchem-fragalysis-2/maxwin/BulkDock/SCRATCH/511024/C52461-P76/C52461-P76.minimised.mol

>  <scratch_subdir>  (872) 
/opt/xchem-fragalysis-2/maxwin/BulkDock/SCRATCH/511024/C52461-P76

>  <fragmenstein_runtime>  (872) 
12.430061101913452

>  <fragmenstein_outcome>  (872) 
too moved

>  <fragmenstein_mode>  (872) 
expansion

>  <fragmenstein_error>  (872) 


$$$$
C52465-P40
     RDKit          3D

 52 54  0  0  0  0  0  0  0  0999 V2000
    8.1429    0.8580   17.1294 C   0  0  0  0  0  0  0  0  0  0  0  0
    7.1676    1.4391   17.9900 O   0  0  0  0  0  0  0  0  0  0  0  0
    7.2401    2.8730   18.1960 C   0  0  0  0  0  0  0  0  0  0  0  0
    8.4096    3.1708   19.1332 C   0  0  0  0  0  0  0  0  0  0  0  0
    5.8020    3.3612   18.8049 C   0  0  0  0  0  0  0  0  0  0  0  0
    5.2790    2.9575   20.1446 N   0  0  0  0  0  0  0  0  0  0  0  0
    4.2617    3.6738   21.1018 C   0  0  0  0  0  0  0  0  0  0  0  0
    3.7518    4.7318   20.9949 O   0  0  0  0  0  0  0  0  0  0  0  0
    4.2011    2.6638   22.2485 N   0  0  0  0  0  0  0  0  0  0  0  0
    3.5882    2.7543   23.5536 C   0  0  0  0  0  0  0  0  0  0  0  0
    2.6783    3.7254   23.9408 C   0  0  0  0  0  0  0  0  0  0  0  0
    2.0052    3.6615   25.1941 C   0  0  0  0  0  0  0  0  0  0  0  0
    2.2621    2.5860   26.0653 C   0  0  0  0  0  0  0  0  0  0  0  0
    1.7136    2.2276   27.2782 N   0  0  0  0  0  0  0  0  0  0  0  0
    2.2492    1.0393   27.7149 C   0  0  0  0  0  0  0  0  0  0  0  0
    3.1855    0.6369   26.7916 C   0  0  0  0  0  0  0  0  0  0  0  0
    3.1913    1.6074   25.7494 C   0  0  0  0  0  0  0  0  0  0  0  0
    3.8595    1.7309   24.5132 C   0  0  0  0  0  0  0  0  0  0  0  0
    7.4518    3.6502   16.8382 C   0  0  0  0  0  0  0  0  0  0  0  0
    8.7140    3.3907   16.2000 O   0  0  0  0  0  0  0  0  0  0  0  0
    8.8409    4.0913   14.9610 C   0  0  0  0  0  0  0  0  0  0  0  0
    9.8236    3.3644   14.0764 C   0  0  0  0  0  0  0  0  0  0  0  0
   11.0422    2.9046   14.5938 C   0  0  0  0  0  0  0  0  0  0  0  0
   11.9647    2.2504   13.7770 C   0  0  0  0  0  0  0  0  0  0  0  0
   11.6849    2.0636   12.4255 C   0  0  0  0  0  0  0  0  0  0  0  0
   10.4833    2.5268   11.8923 C   0  0  0  0  0  0  0  0  0  0  0  0
    9.5572    3.1752   12.7127 C   0  0  0  0  0  0  0  0  0  0  0  0
    7.9243    1.0934   16.0848 H   0  0  0  0  0  0  0  0  0  0  0  0
    9.1583    1.1488   17.4035 H   0  0  0  0  0  0  0  0  0  0  0  0
    8.0502   -0.2245   17.2271 H   0  0  0  0  0  0  0  0  0  0  0  0
    9.3658    3.1659   18.6069 H   0  0  0  0  0  0  0  0  0  0  0  0
    8.4828    2.3892   19.8884 H   0  0  0  0  0  0  0  0  0  0  0  0
    8.3021    4.1478   19.6134 H   0  0  0  0  0  0  0  0  0  0  0  0
    5.0257    3.0257   18.1063 H   0  0  0  0  0  0  0  0  0  0  0  0
    5.7807    4.4572   18.8078 H   0  0  0  0  0  0  0  0  0  0  0  0
    5.4577    2.0294   20.4816 H   0  0  0  0  0  0  0  0  0  0  0  0
    4.6829    1.8301   21.9825 H   0  0  0  0  0  0  0  0  0  0  0  0
    2.4363    4.5415   23.2629 H   0  0  0  0  0  0  0  0  0  0  0  0
    1.2762    4.4253   25.4502 H   0  0  0  0  0  0  0  0  0  0  0  0
    0.9903    2.7482   27.7543 H   0  0  0  0  0  0  0  0  0  0  0  0
    1.9153    0.5907   28.6404 H   0  0  0  0  0  0  0  0  0  0  0  0
    3.7818   -0.2642   26.8390 H   0  0  0  0  0  0  0  0  0  0  0  0
    4.5309    0.9113   24.2879 H   0  0  0  0  0  0  0  0  0  0  0  0
    7.3787    4.7292   17.0210 H   0  0  0  0  0  0  0  0  0  0  0  0
    6.6525    3.3528   16.1480 H   0  0  0  0  0  0  0  0  0  0  0  0
    7.8688    4.1507   14.4569 H   0  0  0  0  0  0  0  0  0  0  0  0
    9.1975    5.1081   15.1580 H   0  0  0  0  0  0  0  0  0  0  0  0
   11.2671    3.0615   15.6456 H   0  0  0  0  0  0  0  0  0  0  0  0
   12.9032    1.8933   14.1928 H   0  0  0  0  0  0  0  0  0  0  0  0
   12.4078    1.5632   11.7860 H   0  0  0  0  0  0  0  0  0  0  0  0
   10.2718    2.3906   10.8343 H   0  0  0  0  0  0  0  0  0  0  0  0
    8.6284    3.5371   12.2770 H   0  0  0  0  0  0  0  0  0  0  0  0
  1  2  1  0
  2  3  1  0
  3  4  1  0
  3  5  1  0
  5  6  1  0
  6  7  1  0
  7  8  2  0
  7  9  1  0
  9 10  1  0
 10 11  2  0
 11 12  1  0
 12 13  2  0
 13 14  1  0
 14 15  1  0
 15 16  2  0
 16 17  1  0
 17 18  2  0
  3 19  1  0
 19 20  1  0
 20 21  1  0
 21 22  1  0
 22 23  2  0
 23 24  1  0
 24 25  2  0
 25 26  1  0
 26 27  2  0
 18 10  1  0
 27 22  1  0
 17 13  1  0
  1 28  1  0
  1 29  1  0
  1 30  1  0
  4 31  1  0
  4 32  1  0
  4 33  1  0
  5 34  1  0
  5 35  1  0
  6 36  1  0
  9 37  1  0
 11 38  1  0
 12 39  1  0
 14 40  1  0
 15 41  1  0
 16 42  1  0
 18 43  1  0
 19 44  1  0
 19 45  1  0
 21 46  1  0
 21 47  1  0
 23 48  1  0
 24 49  1  0
 25 50  1  0
 26 51  1  0
 27 52  1  0
M  END
>  <Energy>  (873) 
50.274654705600241

>  <compound_id>  (873) 
52465

>  <target_id>  (873) 
1

>  <reference_id>  (873) 
40

>  <inspiration_ids>  (873) 
[40, 76]

>  <energy_score>  (873) 
-31.860053776187527

>  <distance_score>  (873) 
9.81501183146626

>  <path>  (873) 
/opt/xchem-fragalysis-2/maxwin/BulkDock/SCRATCH/511024/C52465-P40/C52465-P40.minimised.mol

>  <scratch_subdir>  (873) 
/opt/xchem-fragalysis-2/maxwin/BulkDock/SCRATCH/511024/C52465-P40

>  <fragmenstein_runtime>  (873) 
10.434748888015747

>  <fragmenstein_outcome>  (873) 
too moved

>  <fragmenstein_mode>  (873) 
expansion

>  <fragmenstein_error>  (873) 


$$$$
C52465-P76
     RDKit          3D

 52 54  0  0  0  0  0  0  0  0999 V2000
   12.2839    5.5425   18.2459 C   0  0  0  0  0  0  0  0  0  0  0  0
   10.8672    5.5504   18.0682 O   0  0  0  0  0  0  0  0  0  0  0  0
   10.3007    4.3978   17.4073 C   0  0  0  0  0  0  0  0  0  0  0  0
   10.4145    3.2132   18.3545 C   0  0  0  0  0  0  0  0  0  0  0  0
    8.7729    4.7069   17.1505 C   0  0  0  0  0  0  0  0  0  0  0  0
    7.8186    4.5992   18.2676 N   0  0  0  0  0  0  0  0  0  0  0  0
    6.6267    3.6836   18.4632 C   0  0  0  0  0  0  0  0  0  0  0  0
    6.2391    2.7941   17.7984 O   0  0  0  0  0  0  0  0  0  0  0  0
    6.0346    4.2930   19.7217 N   0  0  0  0  0  0  0  0  0  0  0  0
    4.8101    4.0270   20.3924 C   0  0  0  0  0  0  0  0  0  0  0  0
    4.4446    4.8431   21.4741 C   0  0  0  0  0  0  0  0  0  0  0  0
    3.2479    4.6523   22.1998 C   0  0  0  0  0  0  0  0  0  0  0  0
    2.4010    3.6167   21.7940 C   0  0  0  0  0  0  0  0  0  0  0  0
    1.1966    3.1928   22.3102 N   0  0  0  0  0  0  0  0  0  0  0  0
    0.6230    2.2807   21.4651 C   0  0  0  0  0  0  0  0  0  0  0  0
    1.5434    1.9918   20.4818 C   0  0  0  0  0  0  0  0  0  0  0  0
    2.6932    2.8097   20.6955 C   0  0  0  0  0  0  0  0  0  0  0  0
    3.9297    2.9982   20.0134 C   0  0  0  0  0  0  0  0  0  0  0  0
   10.9900    4.1682   16.0183 C   0  0  0  0  0  0  0  0  0  0  0  0
   12.3280    3.6750   16.1504 O   0  0  0  0  0  0  0  0  0  0  0  0
   12.9937    3.5810   14.8938 C   0  0  0  0  0  0  0  0  0  0  0  0
   14.3227    2.9096   15.1176 C   0  0  0  0  0  0  0  0  0  0  0  0
   15.3697    3.5988   15.7458 C   0  0  0  0  0  0  0  0  0  0  0  0
   16.5976    2.9731   15.9672 C   0  0  0  0  0  0  0  0  0  0  0  0
   16.7893    1.6514   15.5683 C   0  0  0  0  0  0  0  0  0  0  0  0
   15.7528    0.9530   14.9517 C   0  0  0  0  0  0  0  0  0  0  0  0
   14.5246    1.5777   14.7299 C   0  0  0  0  0  0  0  0  0  0  0  0
   12.6569    4.6080   18.6685 H   0  0  0  0  0  0  0  0  0  0  0  0
   12.5251    6.3420   18.9533 H   0  0  0  0  0  0  0  0  0  0  0  0
   12.7896    5.7865   17.3084 H   0  0  0  0  0  0  0  0  0  0  0  0
    9.7912    2.3875   18.0113 H   0  0  0  0  0  0  0  0  0  0  0  0
   10.0794    3.4845   19.3631 H   0  0  0  0  0  0  0  0  0  0  0  0
   11.4443    2.8801   18.4709 H   0  0  0  0  0  0  0  0  0  0  0  0
    8.3912    4.0265   16.3807 H   0  0  0  0  0  0  0  0  0  0  0  0
    8.6712    5.7318   16.7759 H   0  0  0  0  0  0  0  0  0  0  0  0
    7.9114    5.2002   19.0661 H   0  0  0  0  0  0  0  0  0  0  0  0
    6.5752    5.0922   19.9899 H   0  0  0  0  0  0  0  0  0  0  0  0
    5.1016    5.6524   21.7864 H   0  0  0  0  0  0  0  0  0  0  0  0
    3.0033    5.2886   23.0440 H   0  0  0  0  0  0  0  0  0  0  0  0
    0.7592    3.5867   23.1312 H   0  0  0  0  0  0  0  0  0  0  0  0
   -0.3767    1.9096   21.6439 H   0  0  0  0  0  0  0  0  0  0  0  0
    1.3944    1.2968   19.6669 H   0  0  0  0  0  0  0  0  0  0  0  0
    4.1611    2.3734   19.1564 H   0  0  0  0  0  0  0  0  0  0  0  0
   10.4080    3.4559   15.4247 H   0  0  0  0  0  0  0  0  0  0  0  0
   11.0228    5.1229   15.4784 H   0  0  0  0  0  0  0  0  0  0  0  0
   13.1517    4.5852   14.4826 H   0  0  0  0  0  0  0  0  0  0  0  0
   12.3883    3.0157   14.1760 H   0  0  0  0  0  0  0  0  0  0  0  0
   15.2260    4.6262   16.0718 H   0  0  0  0  0  0  0  0  0  0  0  0
   17.4031    3.5154   16.4550 H   0  0  0  0  0  0  0  0  0  0  0  0
   17.7446    1.1636   15.7424 H   0  0  0  0  0  0  0  0  0  0  0  0
   15.8988   -0.0799   14.6462 H   0  0  0  0  0  0  0  0  0  0  0  0
   13.7193    1.0172   14.2594 H   0  0  0  0  0  0  0  0  0  0  0  0
  1  2  1  0
  2  3  1  0
  3  4  1  0
  3  5  1  0
  5  6  1  0
  6  7  1  0
  7  8  2  0
  7  9  1  0
  9 10  1  0
 10 11  2  0
 11 12  1  0
 12 13  2  0
 13 14  1  0
 14 15  1  0
 15 16  2  0
 16 17  1  0
 17 18  2  0
  3 19  1  0
 19 20  1  0
 20 21  1  0
 21 22  1  0
 22 23  2  0
 23 24  1  0
 24 25  2  0
 25 26  1  0
 26 27  2  0
 18 10  1  0
 27 22  1  0
 17 13  1  0
  1 28  1  0
  1 29  1  0
  1 30  1  0
  4 31  1  0
  4 32  1  0
  4 33  1  0
  5 34  1  0
  5 35  1  0
  6 36  1  0
  9 37  1  0
 11 38  1  0
 12 39  1  0
 14 40  1  0
 15 41  1  0
 16 42  1  0
 18 43  1  0
 19 44  1  0
 19 45  1  0
 21 46  1  0
 21 47  1  0
 23 48  1  0
 24 49  1  0
 25 50  1  0
 26 51  1  0
 27 52  1  0
M  END
>  <Energy>  (874) 
38.298457383512677

>  <compound_id>  (874) 
52465

>  <target_id>  (874) 
1

>  <reference_id>  (874) 
76

>  <inspiration_ids>  (874) 
[40, 76]

>  <energy_score>  (874) 
-43.83625109827457

>  <distance_score>  (874) 
11.689524129718706

>  <path>  (874) 
/opt/xchem-fragalysis-2/maxwin/BulkDock/SCRATCH/511024/C52465-P76/C52465-P76.minimised.mol

>  <scratch_subdir>  (874) 
/opt/xchem-fragalysis-2/maxwin/BulkDock/SCRATCH/511024/C52465-P76

>  <fragmenstein_runtime>  (874) 
12.283978700637817

>  <fragmenstein_outcome>  (874) 
too moved

>  <fragmenstein_mode>  (874) 
expansion

>  <fragmenstein_error>  (874) 


$$$$
C52466-P40
     RDKit          3D

 50 52  0  0  0  0  0  0  0  0999 V2000
    7.8770   -4.8175   27.1071 C   0  0  0  0  0  0  0  0  0  0  0  0
    7.3381   -3.4049   27.2930 C   0  0  0  0  0  0  0  0  0  0  0  0
    5.9275   -3.2942   26.9110 N   0  0  0  0  0  0  0  0  0  0  0  0
    5.7193   -3.0105   25.4899 C   0  0  0  0  0  0  0  0  0  0  0  0
    5.9679   -4.0558   24.2800 C   0  0  0  0  0  0  0  0  0  0  0  0
    5.9688   -2.9158   22.9059 N   0  0  0  0  0  0  0  0  0  0  0  0
    6.8992   -2.9175   21.3880 C   0  0  0  0  0  0  0  0  0  0  0  0
    7.6736   -3.7608   20.9499 O   0  0  0  0  0  0  0  0  0  0  0  0
    6.6313   -1.1772   20.4498 C   0  0  0  0  0  0  0  0  0  0  0  0
    7.1574    0.2856   19.3607 C   0  0  0  0  0  0  0  0  0  0  0  0
    6.4904    1.5362   19.6331 C   0  0  0  0  0  0  0  0  0  0  0  0
    6.8439    2.8081   19.1306 C   0  0  0  0  0  0  0  0  0  0  0  0
    7.8632    2.9406   18.2241 C   0  0  0  0  0  0  0  0  0  0  0  0
    8.4375    1.7846   17.7719 C   0  0  0  0  0  0  0  0  0  0  0  0
    8.0661    0.5190   18.3038 C   0  0  0  0  0  0  0  0  0  0  0  0
    5.1889   -2.3112   27.7677 C   0  0  0  0  0  0  0  0  0  0  0  0
    4.1875   -3.1381   28.6031 C   0  0  0  0  0  0  0  0  0  0  0  0
    4.7487   -3.8124   29.6899 C   0  0  0  0  0  0  0  0  0  0  0  0
    4.7476   -5.1988   29.6500 C   0  0  0  0  0  0  0  0  0  0  0  0
    4.1264   -5.8209   28.5566 C   0  0  0  0  0  0  0  0  0  0  0  0
    4.3329   -7.0642   27.9255 C   0  0  0  0  0  0  0  0  0  0  0  0
    3.5670   -7.1049   26.7859 C   0  0  0  0  0  0  0  0  0  0  0  0
    2.9115   -5.9108   26.6961 N   0  0  0  0  0  0  0  0  0  0  0  0
    3.2876   -5.0835   27.7259 C   0  0  0  0  0  0  0  0  0  0  0  0
    3.1386   -3.7042   27.8546 C   0  0  0  0  0  0  0  0  0  0  0  0
    8.9085   -4.8713   27.4712 H   0  0  0  0  0  0  0  0  0  0  0  0
    7.2878   -5.5420   27.6783 H   0  0  0  0  0  0  0  0  0  0  0  0
    7.8830   -5.1343   26.0649 H   0  0  0  0  0  0  0  0  0  0  0  0
    7.9622   -2.6719   26.7688 H   0  0  0  0  0  0  0  0  0  0  0  0
    7.4592   -3.1870   28.3620 H   0  0  0  0  0  0  0  0  0  0  0  0
    4.6537   -2.7670   25.3645 H   0  0  0  0  0  0  0  0  0  0  0  0
    6.2133   -2.0559   25.2876 H   0  0  0  0  0  0  0  0  0  0  0  0
    5.0896   -4.6894   24.4351 H   0  0  0  0  0  0  0  0  0  0  0  0
    6.7309   -4.8312   24.2314 H   0  0  0  0  0  0  0  0  0  0  0  0
    5.3448   -2.0979   22.9382 H   0  0  0  0  0  0  0  0  0  0  0  0
    5.7403   -0.8875   21.0362 H   0  0  0  0  0  0  0  0  0  0  0  0
    7.5347   -0.8080   20.7323 H   0  0  0  0  0  0  0  0  0  0  0  0
    5.6241    1.5844   20.2866 H   0  0  0  0  0  0  0  0  0  0  0  0
    6.2966    3.6857   19.4661 H   0  0  0  0  0  0  0  0  0  0  0  0
    8.1527    3.9085   17.8309 H   0  0  0  0  0  0  0  0  0  0  0  0
    9.1759    1.8410   16.9728 H   0  0  0  0  0  0  0  0  0  0  0  0
    8.5401   -0.1641   17.6395 H   0  0  0  0  0  0  0  0  0  0  0  0
    5.8486   -1.7346   28.4285 H   0  0  0  0  0  0  0  0  0  0  0  0
    4.6301   -1.5685   27.1829 H   0  0  0  0  0  0  0  0  0  0  0  0
    5.4911   -3.3225   30.3174 H   0  0  0  0  0  0  0  0  0  0  0  0
    5.4547   -5.7420   30.2688 H   0  0  0  0  0  0  0  0  0  0  0  0
    5.0702   -7.7956   28.2268 H   0  0  0  0  0  0  0  0  0  0  0  0
    3.5078   -7.8364   25.9879 H   0  0  0  0  0  0  0  0  0  0  0  0
    2.4261   -5.6086   25.8697 H   0  0  0  0  0  0  0  0  0  0  0  0
    2.6831   -3.1337   27.0541 H   0  0  0  0  0  0  0  0  0  0  0  0
  1  2  1  0
  2  3  1  0
  3  4  1  0
  4  5  1  0
  5  6  1  0
  6  7  1  0
  7  8  2  0
  7  9  1  0
  9 10  1  0
 10 11  2  0
 11 12  1  0
 12 13  2  0
 13 14  1  0
 14 15  2  0
  3 16  1  0
 16 17  1  0
 17 18  2  0
 18 19  1  0
 19 20  2  0
 20 21  1  0
 21 22  2  0
 22 23  1  0
 23 24  1  0
 24 25  2  0
 15 10  1  0
 25 17  1  0
 24 20  1  0
  1 26  1  0
  1 27  1  0
  1 28  1  0
  2 29  1  0
  2 30  1  0
  4 31  1  0
  4 32  1  0
  5 33  1  0
  5 34  1  0
  6 35  1  0
  9 36  1  0
  9 37  1  0
 11 38  1  0
 12 39  1  0
 13 40  1  0
 14 41  1  0
 15 42  1  0
 16 43  1  0
 16 44  1  0
 18 45  1  0
 19 46  1  0
 21 47  1  0
 22 48  1  0
 23 49  1  0
 25 50  1  0
M  END
>  <Energy>  (875) 
375.34545414765529

>  <compound_id>  (875) 
52466

>  <target_id>  (875) 
1

>  <reference_id>  (875) 
40

>  <inspiration_ids>  (875) 
[40, 76]

>  <energy_score>  (875) 
272.83437425961426

>  <distance_score>  (875) 
6.233566138165435

>  <path>  (875) 
/opt/xchem-fragalysis-2/maxwin/BulkDock/SCRATCH/511024/C52466-P40/C52466-P40.minimised.mol

>  <scratch_subdir>  (875) 
/opt/xchem-fragalysis-2/maxwin/BulkDock/SCRATCH/511024/C52466-P40

>  <fragmenstein_runtime>  (875) 
15.93342638015747

>  <fragmenstein_outcome>  (875) 
too moved

>  <fragmenstein_mode>  (875) 
expansion

>  <fragmenstein_error>  (875) 


$$$$
C52466-P76
     RDKit          3D

 50 52  0  0  0  0  0  0  0  0999 V2000
    9.5971   -3.7265   30.1636 C   0  0  0  0  0  0  0  0  0  0  0  0
    8.8297   -4.5033   29.1000 C   0  0  0  0  0  0  0  0  0  0  0  0
    8.2218   -3.7107   28.0325 N   0  0  0  0  0  0  0  0  0  0  0  0
    9.3201   -3.0422   27.1121 C   0  0  0  0  0  0  0  0  0  0  0  0
   10.6909   -3.8831   26.5689 C   0  0  0  0  0  0  0  0  0  0  0  0
   11.6273   -3.3676   25.4159 N   0  0  0  0  0  0  0  0  0  0  0  0
   12.3698   -4.1797   24.2237 C   0  0  0  0  0  0  0  0  0  0  0  0
   12.3030   -5.3258   23.9189 O   0  0  0  0  0  0  0  0  0  0  0  0
   13.3828   -3.2307   23.3803 C   0  0  0  0  0  0  0  0  0  0  0  0
   13.7393   -3.4094   21.7937 C   0  0  0  0  0  0  0  0  0  0  0  0
   14.6812   -2.5138   21.1982 C   0  0  0  0  0  0  0  0  0  0  0  0
   15.0082   -2.5136   19.8203 C   0  0  0  0  0  0  0  0  0  0  0  0
   14.3990   -3.4262   18.9761 C   0  0  0  0  0  0  0  0  0  0  0  0
   13.4582   -4.2987   19.5174 C   0  0  0  0  0  0  0  0  0  0  0  0
   13.1361   -4.2974   20.8973 C   0  0  0  0  0  0  0  0  0  0  0  0
    7.1066   -2.7532   28.5480 C   0  0  0  0  0  0  0  0  0  0  0  0
    5.6297   -3.2155   29.0973 C   0  0  0  0  0  0  0  0  0  0  0  0
    5.3790   -4.0907   30.1756 C   0  0  0  0  0  0  0  0  0  0  0  0
    4.0608   -4.4595   30.5952 C   0  0  0  0  0  0  0  0  0  0  0  0
    2.9355   -4.0006   29.8838 C   0  0  0  0  0  0  0  0  0  0  0  0
    1.5478   -4.3197   29.8753 C   0  0  0  0  0  0  0  0  0  0  0  0
    0.9728   -3.6236   28.8341 C   0  0  0  0  0  0  0  0  0  0  0  0
    1.9411   -2.8332   28.2646 N   0  0  0  0  0  0  0  0  0  0  0  0
    3.1560   -3.0524   28.8848 C   0  0  0  0  0  0  0  0  0  0  0  0
    4.4651   -2.6052   28.5310 C   0  0  0  0  0  0  0  0  0  0  0  0
    8.9407   -3.0705   30.7422 H   0  0  0  0  0  0  0  0  0  0  0  0
   10.3982   -3.1216   29.7290 H   0  0  0  0  0  0  0  0  0  0  0  0
   10.0595   -4.4262   30.8682 H   0  0  0  0  0  0  0  0  0  0  0  0
    9.5047   -5.2424   28.6525 H   0  0  0  0  0  0  0  0  0  0  0  0
    8.0581   -5.1075   29.5872 H   0  0  0  0  0  0  0  0  0  0  0  0
    9.6969   -2.1557   27.6366 H   0  0  0  0  0  0  0  0  0  0  0  0
    8.7911   -2.6835   26.2237 H   0  0  0  0  0  0  0  0  0  0  0  0
   10.3751   -4.8882   26.2689 H   0  0  0  0  0  0  0  0  0  0  0  0
   11.3568   -3.9956   27.4314 H   0  0  0  0  0  0  0  0  0  0  0  0
   11.9720   -2.4171   25.4464 H   0  0  0  0  0  0  0  0  0  0  0  0
   14.3485   -3.3591   23.8890 H   0  0  0  0  0  0  0  0  0  0  0  0
   13.0805   -2.1929   23.5460 H   0  0  0  0  0  0  0  0  0  0  0  0
   15.1617   -1.7737   21.8379 H   0  0  0  0  0  0  0  0  0  0  0  0
   15.7342   -1.8022   19.4380 H   0  0  0  0  0  0  0  0  0  0  0  0
   14.6242   -3.4406   17.9148 H   0  0  0  0  0  0  0  0  0  0  0  0
   12.9145   -4.9590   18.8582 H   0  0  0  0  0  0  0  0  0  0  0  0
   12.3845   -4.9848   21.2565 H   0  0  0  0  0  0  0  0  0  0  0  0
    7.5230   -2.1003   29.3237 H   0  0  0  0  0  0  0  0  0  0  0  0
    6.8890   -2.0938   27.6986 H   0  0  0  0  0  0  0  0  0  0  0  0
    6.2206   -4.4997   30.7290 H   0  0  0  0  0  0  0  0  0  0  0  0
    3.9315   -5.1274   31.4398 H   0  0  0  0  0  0  0  0  0  0  0  0
    1.0459   -5.0303   30.5207 H   0  0  0  0  0  0  0  0  0  0  0  0
   -0.0402   -3.6053   28.4557 H   0  0  0  0  0  0  0  0  0  0  0  0
    1.8156   -2.2569   27.4400 H   0  0  0  0  0  0  0  0  0  0  0  0
    4.5797   -1.9125   27.6973 H   0  0  0  0  0  0  0  0  0  0  0  0
  1  2  1  0
  2  3  1  0
  3  4  1  0
  4  5  1  0
  5  6  1  0
  6  7  1  0
  7  8  2  0
  7  9  1  0
  9 10  1  0
 10 11  2  0
 11 12  1  0
 12 13  2  0
 13 14  1  0
 14 15  2  0
  3 16  1  0
 16 17  1  0
 17 18  2  0
 18 19  1  0
 19 20  2  0
 20 21  1  0
 21 22  2  0
 22 23  1  0
 23 24  1  0
 24 25  2  0
 15 10  1  0
 25 17  1  0
 24 20  1  0
  1 26  1  0
  1 27  1  0
  1 28  1  0
  2 29  1  0
  2 30  1  0
  4 31  1  0
  4 32  1  0
  5 33  1  0
  5 34  1  0
  6 35  1  0
  9 36  1  0
  9 37  1  0
 11 38  1  0
 12 39  1  0
 13 40  1  0
 14 41  1  0
 15 42  1  0
 16 43  1  0
 16 44  1  0
 18 45  1  0
 19 46  1  0
 21 47  1  0
 22 48  1  0
 23 49  1  0
 25 50  1  0
M  END
>  <Energy>  (876) 
141.13779165085305

>  <compound_id>  (876) 
52466

>  <target_id>  (876) 
1

>  <reference_id>  (876) 
76

>  <inspiration_ids>  (876) 
[40, 76]

>  <energy_score>  (876) 
53.98243901626324

>  <distance_score>  (876) 
5.184740227909675

>  <path>  (876) 
/opt/xchem-fragalysis-2/maxwin/BulkDock/SCRATCH/511024/C52466-P76/C52466-P76.minimised.mol

>  <scratch_subdir>  (876) 
/opt/xchem-fragalysis-2/maxwin/BulkDock/SCRATCH/511024/C52466-P76

>  <fragmenstein_runtime>  (876) 
10.663270473480225

>  <fragmenstein_outcome>  (876) 
too moved

>  <fragmenstein_mode>  (876) 
expansion

>  <fragmenstein_error>  (876) 


$$$$
C52467-P40
     RDKit          3D

 49 53  0  0  0  0  0  0  0  0999 V2000
    8.5424   -1.8753   16.2620 O   0  0  0  0  0  0  0  0  0  0  0  0
    9.1626   -1.5083   17.2822 C   0  0  0  0  0  0  0  0  0  0  0  0
   10.3129   -0.5922   16.8180 C   0  0  0  0  0  0  0  0  0  0  0  0
    9.8970    0.6753   16.3248 C   0  0  0  0  0  0  0  0  0  0  0  0
   10.6240    1.3287   15.3261 C   0  0  0  0  0  0  0  0  0  0  0  0
   11.7272    0.7244   14.7109 C   0  0  0  0  0  0  0  0  0  0  0  0
   12.0529   -0.5872   15.0805 C   0  0  0  0  0  0  0  0  0  0  0  0
   13.0097   -1.4325   14.5653 N   0  0  0  0  0  0  0  0  0  0  0  0
   12.9384   -2.6549   15.1685 C   0  0  0  0  0  0  0  0  0  0  0  0
   11.9266   -2.6017   16.0982 C   0  0  0  0  0  0  0  0  0  0  0  0
   11.3612   -1.2869   16.0751 C   0  0  0  0  0  0  0  0  0  0  0  0
    8.5817   -2.3499   19.1731 N   0  0  0  0  0  0  0  0  0  0  0  0
    7.0986   -4.0245   19.5382 C   0  0  0  0  0  0  0  0  0  0  0  0
    5.6079   -3.4425   19.7636 C   0  0  0  0  0  0  0  0  0  0  0  0
    5.8034   -2.6385   20.9973 C   0  0  0  0  0  0  0  0  0  0  0  0
    6.6974   -3.1747   22.0860 N   0  0  0  0  0  0  0  0  0  0  0  0
    5.9922   -3.1126   23.6385 C   0  0  0  0  0  0  0  0  0  0  0  0
    5.3076   -2.1894   24.0915 O   0  0  0  0  0  0  0  0  0  0  0  0
    6.1082   -4.4347   24.1490 N   0  0  0  0  0  0  0  0  0  0  0  0
    5.4025   -4.8511   25.3610 C   0  0  0  0  0  0  0  0  0  0  0  0
    5.0083   -3.9013   26.3276 C   0  0  0  0  0  0  0  0  0  0  0  0
    4.2109   -4.2317   27.4359 C   0  0  0  0  0  0  0  0  0  0  0  0
    3.7866   -5.5386   27.6209 C   0  0  0  0  0  0  0  0  0  0  0  0
    4.1821   -6.5060   26.7040 C   0  0  0  0  0  0  0  0  0  0  0  0
    4.9915   -6.1715   25.6005 C   0  0  0  0  0  0  0  0  0  0  0  0
    6.7441   -5.1984   23.1868 C   0  0  0  0  0  0  0  0  0  0  0  0
    6.6988   -6.4269   23.3312 O   0  0  0  0  0  0  0  0  0  0  0  0
    7.5138   -4.3070   21.5930 C   0  0  0  0  0  0  0  0  0  0  0  0
    9.0500   -3.9070   20.2043 C   0  0  0  0  0  0  0  0  0  0  0  0
    8.9671    1.1188   16.6820 H   0  0  0  0  0  0  0  0  0  0  0  0
   10.2901    2.3062   14.9837 H   0  0  0  0  0  0  0  0  0  0  0  0
   12.2582    1.2341   13.9136 H   0  0  0  0  0  0  0  0  0  0  0  0
   13.6393   -1.1893   13.8142 H   0  0  0  0  0  0  0  0  0  0  0  0
   13.6002   -3.4623   14.8843 H   0  0  0  0  0  0  0  0  0  0  0  0
   11.6447   -3.4342   16.7287 H   0  0  0  0  0  0  0  0  0  0  0  0
    7.1170   -5.0957   19.6422 H   0  0  0  0  0  0  0  0  0  0  0  0
    6.8799   -4.4484   18.5400 H   0  0  0  0  0  0  0  0  0  0  0  0
    4.9353   -4.2661   19.5452 H   0  0  0  0  0  0  0  0  0  0  0  0
    5.3836   -2.6451   19.0767 H   0  0  0  0  0  0  0  0  0  0  0  0
    6.1396   -1.6659   20.6828 H   0  0  0  0  0  0  0  0  0  0  0  0
    5.0938   -2.6452   21.7304 H   0  0  0  0  0  0  0  0  0  0  0  0
    5.3311   -2.8650   26.2462 H   0  0  0  0  0  0  0  0  0  0  0  0
    3.9365   -3.4542   28.1446 H   0  0  0  0  0  0  0  0  0  0  0  0
    3.1719   -5.7987   28.4752 H   0  0  0  0  0  0  0  0  0  0  0  0
    3.8659   -7.5366   26.8187 H   0  0  0  0  0  0  0  0  0  0  0  0
    5.2327   -6.9709   24.9021 H   0  0  0  0  0  0  0  0  0  0  0  0
    7.0620   -5.2509   21.2809 H   0  0  0  0  0  0  0  0  0  0  0  0
    9.5761   -4.9140   20.0384 H   0  0  0  0  0  0  0  0  0  0  0  0
    9.6465   -2.9642   20.6732 H   0  0  0  0  0  0  0  0  0  0  0  0
  1  2  2  0
  2  3  1  0
  3  4  2  0
  4  5  1  0
  5  6  2  0
  6  7  1  0
  7  8  1  0
  8  9  1  0
  9 10  2  0
 10 11  1  0
  2 12  1  0
 12 13  1  0
 13 14  1  0
 14 15  1  0
 15 16  1  0
 16 17  1  0
 17 18  2  0
 17 19  1  0
 19 20  1  0
 20 21  2  0
 21 22  1  0
 22 23  2  0
 23 24  1  0
 24 25  2  0
 19 26  1  0
 26 27  2  0
 26 28  1  0
 28 29  1  0
 11  3  1  0
 29 12  1  0
 11  7  2  0
 28 16  1  0
 25 20  1  0
  4 30  1  0
  5 31  1  0
  6 32  1  0
  8 33  1  0
  9 34  1  0
 10 35  1  0
 13 36  1  0
 13 37  1  0
 14 38  1  0
 14 39  1  0
 15 40  1  0
 15 41  1  0
 21 42  1  0
 22 43  1  0
 23 44  1  0
 24 45  1  0
 25 46  1  0
 28 47  1  0
 29 48  1  0
 29 49  1  0
M  END
>  <Energy>  (877) 
1092.4583740414655

>  <compound_id>  (877) 
52467

>  <target_id>  (877) 
1

>  <reference_id>  (877) 
40

>  <inspiration_ids>  (877) 
[40, 76]

>  <energy_score>  (877) 
997.3916656437366

>  <distance_score>  (877) 
5.285727761421452

>  <path>  (877) 
/opt/xchem-fragalysis-2/maxwin/BulkDock/SCRATCH/511024/C52467-P40/C52467-P40.minimised.mol

>  <scratch_subdir>  (877) 
/opt/xchem-fragalysis-2/maxwin/BulkDock/SCRATCH/511024/C52467-P40

>  <fragmenstein_runtime>  (877) 
21.903578519821167

>  <fragmenstein_outcome>  (877) 
too moved

>  <fragmenstein_mode>  (877) 
expansion

>  <fragmenstein_error>  (877) 


$$$$
C52467-P76
     RDKit          3D

 49 53  0  0  0  0  0  0  0  0999 V2000
    8.2100   -1.5366   16.4764 O   0  0  0  0  0  0  0  0  0  0  0  0
    9.0379   -2.1777   17.3943 C   0  0  0  0  0  0  0  0  0  0  0  0
   10.9551   -1.9270   16.7775 C   0  0  0  0  0  0  0  0  0  0  0  0
   10.8252   -1.7452   15.3357 C   0  0  0  0  0  0  0  0  0  0  0  0
   11.8605   -1.6070   14.4070 C   0  0  0  0  0  0  0  0  0  0  0  0
   13.1515   -1.8638   14.7686 C   0  0  0  0  0  0  0  0  0  0  0  0
   13.2920   -2.5348   15.9722 C   0  0  0  0  0  0  0  0  0  0  0  0
   14.4554   -3.1202   16.4173 N   0  0  0  0  0  0  0  0  0  0  0  0
   14.2059   -3.8622   17.5156 C   0  0  0  0  0  0  0  0  0  0  0  0
   12.8736   -3.6923   17.8100 C   0  0  0  0  0  0  0  0  0  0  0  0
   12.2406   -2.7417   16.9096 C   0  0  0  0  0  0  0  0  0  0  0  0
    8.5436   -3.6181   19.1269 N   0  0  0  0  0  0  0  0  0  0  0  0
    6.7414   -4.4216   19.5839 C   0  0  0  0  0  0  0  0  0  0  0  0
    5.5344   -3.1339   20.2278 C   0  0  0  0  0  0  0  0  0  0  0  0
    5.6210   -1.8783   21.4193 C   0  0  0  0  0  0  0  0  0  0  0  0
    5.7013   -2.1976   22.7586 N   0  0  0  0  0  0  0  0  0  0  0  0
    5.0274   -1.4666   24.0925 C   0  0  0  0  0  0  0  0  0  0  0  0
    4.0823   -0.7714   24.3861 O   0  0  0  0  0  0  0  0  0  0  0  0
    5.8922   -1.7500   25.0879 N   0  0  0  0  0  0  0  0  0  0  0  0
    5.3589   -1.4356   26.4730 C   0  0  0  0  0  0  0  0  0  0  0  0
    6.2865   -1.0142   27.4298 C   0  0  0  0  0  0  0  0  0  0  0  0
    5.9088   -0.8524   28.7733 C   0  0  0  0  0  0  0  0  0  0  0  0
    4.5998   -1.1067   29.1895 C   0  0  0  0  0  0  0  0  0  0  0  0
    3.6538   -1.5156   28.2607 C   0  0  0  0  0  0  0  0  0  0  0  0
    4.0294   -1.6746   26.9226 C   0  0  0  0  0  0  0  0  0  0  0  0
    5.7153   -2.7948   24.3533 C   0  0  0  0  0  0  0  0  0  0  0  0
    4.4665   -3.3171   24.6864 O   0  0  0  0  0  0  0  0  0  0  0  0
    6.7475   -3.4518   22.7891 C   0  0  0  0  0  0  0  0  0  0  0  0
    8.0907   -3.3308   21.1352 C   0  0  0  0  0  0  0  0  0  0  0  0
    9.8306   -1.5627   14.9246 H   0  0  0  0  0  0  0  0  0  0  0  0
   11.6331   -1.2537   13.4076 H   0  0  0  0  0  0  0  0  0  0  0  0
   13.9707   -1.7255   14.0720 H   0  0  0  0  0  0  0  0  0  0  0  0
   15.3381   -3.0741   15.9253 H   0  0  0  0  0  0  0  0  0  0  0  0
   14.9833   -4.4316   18.0060 H   0  0  0  0  0  0  0  0  0  0  0  0
   12.4898   -4.1636   18.6948 H   0  0  0  0  0  0  0  0  0  0  0  0
    6.9906   -5.3014   20.1169 H   0  0  0  0  0  0  0  0  0  0  0  0
    6.3266   -4.9295   18.6993 H   0  0  0  0  0  0  0  0  0  0  0  0
    5.3216   -2.6980   19.2802 H   0  0  0  0  0  0  0  0  0  0  0  0
    4.6778   -3.6921   20.4442 H   0  0  0  0  0  0  0  0  0  0  0  0
    6.4003   -1.1817   21.0289 H   0  0  0  0  0  0  0  0  0  0  0  0
    4.9237   -1.0956   21.6424 H   0  0  0  0  0  0  0  0  0  0  0  0
    7.3181   -0.8416   27.1392 H   0  0  0  0  0  0  0  0  0  0  0  0
    6.6505   -0.5308   29.4998 H   0  0  0  0  0  0  0  0  0  0  0  0
    4.3220   -0.9775   30.2312 H   0  0  0  0  0  0  0  0  0  0  0  0
    2.6281   -1.7133   28.5560 H   0  0  0  0  0  0  0  0  0  0  0  0
    3.2678   -2.0168   26.2220 H   0  0  0  0  0  0  0  0  0  0  0  0
    7.2934   -4.0083   23.5497 H   0  0  0  0  0  0  0  0  0  0  0  0
    7.8899   -4.3139   21.6512 H   0  0  0  0  0  0  0  0  0  0  0  0
    8.2172   -4.3508   20.7579 H   0  0  0  0  0  0  0  0  0  0  0  0
  1  2  2  0
  2  3  1  0
  3  4  2  0
  4  5  1  0
  5  6  2  0
  6  7  1  0
  7  8  1  0
  8  9  1  0
  9 10  2  0
 10 11  1  0
  2 12  1  0
 12 13  1  0
 13 14  1  0
 14 15  1  0
 15 16  1  0
 16 17  1  0
 17 18  2  0
 17 19  1  0
 19 20  1  0
 20 21  2  0
 21 22  1  0
 22 23  2  0
 23 24  1  0
 24 25  2  0
 19 26  1  0
 26 27  2  0
 26 28  1  0
 28 29  1  0
 11  3  1  0
 29 12  1  0
 11  7  2  0
 28 16  1  0
 25 20  1  0
  4 30  1  0
  5 31  1  0
  6 32  1  0
  8 33  1  0
  9 34  1  0
 10 35  1  0
 13 36  1  0
 13 37  1  0
 14 38  1  0
 14 39  1  0
 15 40  1  0
 15 41  1  0
 21 42  1  0
 22 43  1  0
 23 44  1  0
 24 45  1  0
 25 46  1  0
 28 47  1  0
 29 48  1  0
 29 49  1  0
M  END
>  <Energy>  (878) 
1570.8942619941643

>  <compound_id>  (878) 
52467

>  <target_id>  (878) 
1

>  <reference_id>  (878) 
76

>  <inspiration_ids>  (878) 
[40, 76]

>  <energy_score>  (878) 
1475.8275535964235

>  <distance_score>  (878) 
5.373895905526511

>  <path>  (878) 
/opt/xchem-fragalysis-2/maxwin/BulkDock/SCRATCH/511024/C52467-P76/C52467-P76.minimised.mol

>  <scratch_subdir>  (878) 
/opt/xchem-fragalysis-2/maxwin/BulkDock/SCRATCH/511024/C52467-P76

>  <fragmenstein_runtime>  (878) 
16.53636598587036

>  <fragmenstein_outcome>  (878) 
too moved

>  <fragmenstein_mode>  (878) 
expansion

>  <fragmenstein_error>  (878) 


$$$$
C52468-P40
     RDKit          3D

 58 62  0  0  0  0  0  0  0  0999 V2000
    9.0755    0.2498   17.7231 O   0  0  0  0  0  0  0  0  0  0  0  0
    8.4002    1.1821   18.0658 C   0  0  0  0  0  0  0  0  0  0  0  0
    7.7536    1.0777   19.5055 C   0  0  0  0  0  0  0  0  0  0  0  0
    6.9977   -0.4923   19.9357 C   0  0  0  0  0  0  0  0  0  0  0  0
    5.7528   -1.8462   20.9204 C   0  0  0  0  0  0  0  0  0  0  0  0
    5.0490   -1.7409   22.8636 C   0  0  0  0  0  0  0  0  0  0  0  0
    4.8647   -0.5551   23.6133 C   0  0  0  0  0  0  0  0  0  0  0  0
    4.4714   -0.5671   24.9203 N   0  0  0  0  0  0  0  0  0  0  0  0
    4.6461   -1.7790   25.4716 C   0  0  0  0  0  0  0  0  0  0  0  0
    4.3908   -2.1758   26.8016 C   0  0  0  0  0  0  0  0  0  0  0  0
    4.6855   -3.4760   27.1837 C   0  0  0  0  0  0  0  0  0  0  0  0
    5.2612   -4.3278   26.2654 C   0  0  0  0  0  0  0  0  0  0  0  0
    5.5133   -3.8889   24.9479 C   0  0  0  0  0  0  0  0  0  0  0  0
    5.1722   -2.5631   24.4372 C   0  0  0  0  0  0  0  0  0  0  0  0
    8.0332    2.3649   17.3624 N   0  0  0  0  0  0  0  0  0  0  0  0
    9.0607    3.4785   17.6270 C   0  0  0  0  0  0  0  0  0  0  0  0
    9.7348    4.6343   16.7868 C   0  0  0  0  0  0  0  0  0  0  0  0
   10.8105    4.2330   15.7638 C   0  0  0  0  0  0  0  0  0  0  0  0
   10.7255    2.8402   15.4219 N   0  0  0  0  0  0  0  0  0  0  0  0
   11.7379    1.9981   14.9745 C   0  0  0  0  0  0  0  0  0  0  0  0
   12.8656    2.4068   14.7331 O   0  0  0  0  0  0  0  0  0  0  0  0
   11.2144    0.7107   14.9082 N   0  0  0  0  0  0  0  0  0  0  0  0
   11.9797   -0.5021   14.8697 C   0  0  0  0  0  0  0  0  0  0  0  0
   11.3622   -1.7638   14.8832 C   0  0  0  0  0  0  0  0  0  0  0  0
   12.0979   -2.9518   14.9785 C   0  0  0  0  0  0  0  0  0  0  0  0
   13.4826   -2.9097   15.0441 C   0  0  0  0  0  0  0  0  0  0  0  0
   14.1271   -1.6799   14.9996 C   0  0  0  0  0  0  0  0  0  0  0  0
   13.3841   -0.4935   14.9154 C   0  0  0  0  0  0  0  0  0  0  0  0
    9.8286    0.7880   15.0412 C   0  0  0  0  0  0  0  0  0  0  0  0
    8.9833   -0.0973   15.0266 O   0  0  0  0  0  0  0  0  0  0  0  0
    9.4670    2.2665   15.1184 C   0  0  0  0  0  0  0  0  0  0  0  0
    8.2705    2.7636   15.9617 C   0  0  0  0  0  0  0  0  0  0  0  0
    8.6878    1.1413   20.0741 H   0  0  0  0  0  0  0  0  0  0  0  0
    7.3024    2.0274   19.7237 H   0  0  0  0  0  0  0  0  0  0  0  0
    7.9428   -0.8638   19.7108 H   0  0  0  0  0  0  0  0  0  0  0  0
    6.7282   -0.5505   18.8619 H   0  0  0  0  0  0  0  0  0  0  0  0
    6.4610   -2.7006   21.1291 H   0  0  0  0  0  0  0  0  0  0  0  0
    5.2501   -2.5878   20.2815 H   0  0  0  0  0  0  0  0  0  0  0  0
    4.9316    0.4392   23.2358 H   0  0  0  0  0  0  0  0  0  0  0  0
    4.1861    0.2595   25.4226 H   0  0  0  0  0  0  0  0  0  0  0  0
    3.9740   -1.4735   27.5174 H   0  0  0  0  0  0  0  0  0  0  0  0
    4.5046   -3.8025   28.2021 H   0  0  0  0  0  0  0  0  0  0  0  0
    5.5431   -5.3387   26.5455 H   0  0  0  0  0  0  0  0  0  0  0  0
    5.9809   -4.6201   24.2888 H   0  0  0  0  0  0  0  0  0  0  0  0
    8.4723    4.0683   18.3529 H   0  0  0  0  0  0  0  0  0  0  0  0
    9.7977    3.0373   18.2889 H   0  0  0  0  0  0  0  0  0  0  0  0
    8.9798    5.2704   16.3073 H   0  0  0  0  0  0  0  0  0  0  0  0
   10.2171    5.3134   17.5044 H   0  0  0  0  0  0  0  0  0  0  0  0
   10.6918    4.8168   14.8436 H   0  0  0  0  0  0  0  0  0  0  0  0
   11.8157    4.4487   16.1403 H   0  0  0  0  0  0  0  0  0  0  0  0
   10.2831   -1.8699   14.8263 H   0  0  0  0  0  0  0  0  0  0  0  0
   11.5796   -3.9074   15.0134 H   0  0  0  0  0  0  0  0  0  0  0  0
   14.0519   -3.8316   15.1296 H   0  0  0  0  0  0  0  0  0  0  0  0
   15.2120   -1.6342   15.0485 H   0  0  0  0  0  0  0  0  0  0  0  0
   13.9488    0.4337   14.9143 H   0  0  0  0  0  0  0  0  0  0  0  0
    9.2832    2.5569   14.0790 H   0  0  0  0  0  0  0  0  0  0  0  0
    7.8691    3.7540   15.6983 H   0  0  0  0  0  0  0  0  0  0  0  0
    7.4698    2.1599   15.5134 H   0  0  0  0  0  0  0  0  0  0  0  0
  1  2  2  0
  2  3  1  0
  3  4  1  0
  4  5  1  0
  5  6  1  0
  6  7  2  0
  7  8  1  0
  8  9  1  0
  9 10  2  0
 10 11  1  0
 11 12  2  0
 12 13  1  0
 13 14  2  0
  2 15  1  0
 15 16  1  0
 16 17  1  0
 17 18  1  0
 18 19  1  0
 19 20  1  0
 20 21  2  0
 20 22  1  0
 22 23  1  0
 23 24  2  0
 24 25  1  0
 25 26  2  0
 26 27  1  0
 27 28  2  0
 22 29  1  0
 29 30  2  0
 29 31  1  0
 31 32  1  0
 14  6  1  0
 32 15  1  0
 14  9  1  0
 31 19  1  0
 28 23  1  0
  3 33  1  0
  3 34  1  0
  4 35  1  0
  4 36  1  0
  5 37  1  0
  5 38  1  0
  7 39  1  0
  8 40  1  0
 10 41  1  0
 11 42  1  0
 12 43  1  0
 13 44  1  0
 16 45  1  0
 16 46  1  0
 17 47  1  0
 17 48  1  0
 18 49  1  0
 18 50  1  0
 24 51  1  0
 25 52  1  0
 26 53  1  0
 27 54  1  0
 28 55  1  0
 31 56  1  0
 32 57  1  0
 32 58  1  0
M  END
>  <Energy>  (879) 
453.48627851789394

>  <compound_id>  (879) 
52468

>  <target_id>  (879) 
1

>  <reference_id>  (879) 
40

>  <inspiration_ids>  (879) 
[40, 76]

>  <energy_score>  (879) 
382.4980477262251

>  <distance_score>  (879) 
5.797894278543819

>  <path>  (879) 
/opt/xchem-fragalysis-2/maxwin/BulkDock/SCRATCH/511024/C52468-P40/C52468-P40.minimised.mol

>  <scratch_subdir>  (879) 
/opt/xchem-fragalysis-2/maxwin/BulkDock/SCRATCH/511024/C52468-P40

>  <fragmenstein_runtime>  (879) 
25.848451614379883

>  <fragmenstein_outcome>  (879) 
too moved

>  <fragmenstein_mode>  (879) 
expansion

>  <fragmenstein_error>  (879) 


$$$$
C52468-P76
     RDKit          3D

 58 62  0  0  0  0  0  0  0  0999 V2000
    7.5256   -1.8991   15.9944 O   0  0  0  0  0  0  0  0  0  0  0  0
    7.0421   -0.8979   16.3257 C   0  0  0  0  0  0  0  0  0  0  0  0
    5.9436   -1.2154   18.0754 C   0  0  0  0  0  0  0  0  0  0  0  0
    5.6295   -2.5574   19.7639 C   0  0  0  0  0  0  0  0  0  0  0  0
    5.4474   -2.2989   21.7511 C   0  0  0  0  0  0  0  0  0  0  0  0
    4.5076   -1.7869   23.3907 C   0  0  0  0  0  0  0  0  0  0  0  0
    5.1917   -1.5903   24.5798 C   0  0  0  0  0  0  0  0  0  0  0  0
    4.5441   -0.3227   25.0304 N   0  0  0  0  0  0  0  0  0  0  0  0
    3.5233   -0.8507   25.6660 C   0  0  0  0  0  0  0  0  0  0  0  0
    2.9787   -0.5266   26.9226 C   0  0  0  0  0  0  0  0  0  0  0  0
    2.2914   -1.5246   27.5543 C   0  0  0  0  0  0  0  0  0  0  0  0
    2.2624   -2.7222   26.8996 C   0  0  0  0  0  0  0  0  0  0  0  0
    2.8659   -2.8804   25.5753 C   0  0  0  0  0  0  0  0  0  0  0  0
    3.4368   -1.9234   24.7401 C   0  0  0  0  0  0  0  0  0  0  0  0
    7.6151    0.4312   15.2776 N   0  0  0  0  0  0  0  0  0  0  0  0
    9.0359    1.5769   15.4384 C   0  0  0  0  0  0  0  0  0  0  0  0
   10.1615    2.3890   14.2054 C   0  0  0  0  0  0  0  0  0  0  0  0
   11.5164    1.5597   13.4846 C   0  0  0  0  0  0  0  0  0  0  0  0
   11.5412    0.0667   13.8021 N   0  0  0  0  0  0  0  0  0  0  0  0
   12.3710   -0.8030   14.7192 C   0  0  0  0  0  0  0  0  0  0  0  0
   13.5021   -0.5225   15.0963 O   0  0  0  0  0  0  0  0  0  0  0  0
   11.5850   -1.9191   15.1579 N   0  0  0  0  0  0  0  0  0  0  0  0
   11.1356   -2.4253   16.5534 C   0  0  0  0  0  0  0  0  0  0  0  0
    9.3880   -1.9053   16.8965 C   0  0  0  0  0  0  0  0  0  0  0  0
    8.7988   -1.7510   18.9050 C   0  0  0  0  0  0  0  0  0  0  0  0
   10.1480   -2.9234   20.0449 C   0  0  0  0  0  0  0  0  0  0  0  0
   12.0114   -3.3988   19.4974 C   0  0  0  0  0  0  0  0  0  0  0  0
   12.2600   -3.1503   17.7260 C   0  0  0  0  0  0  0  0  0  0  0  0
   10.4588   -1.8242   14.4595 C   0  0  0  0  0  0  0  0  0  0  0  0
    9.6846   -2.7763   14.5344 O   0  0  0  0  0  0  0  0  0  0  0  0
   10.2152   -0.3857   13.8614 C   0  0  0  0  0  0  0  0  0  0  0  0
    8.6141    0.4205   13.8693 C   0  0  0  0  0  0  0  0  0  0  0  0
    4.9173   -1.2377   17.7093 H   0  0  0  0  0  0  0  0  0  0  0  0
    6.4498   -0.3891   18.6105 H   0  0  0  0  0  0  0  0  0  0  0  0
    5.5955   -3.6469   19.6352 H   0  0  0  0  0  0  0  0  0  0  0  0
    6.4561   -1.9323   20.3390 H   0  0  0  0  0  0  0  0  0  0  0  0
    6.1395   -2.9455   22.2760 H   0  0  0  0  0  0  0  0  0  0  0  0
    4.8418   -3.1023   21.4398 H   0  0  0  0  0  0  0  0  0  0  0  0
    6.1449   -1.8163   25.0387 H   0  0  0  0  0  0  0  0  0  0  0  0
    4.2620    0.3424   24.3186 H   0  0  0  0  0  0  0  0  0  0  0  0
    3.2084    0.4108   27.4134 H   0  0  0  0  0  0  0  0  0  0  0  0
    1.8475   -1.3902   28.5311 H   0  0  0  0  0  0  0  0  0  0  0  0
    1.7202   -3.5484   27.3462 H   0  0  0  0  0  0  0  0  0  0  0  0
    2.6869   -3.7535   25.0400 H   0  0  0  0  0  0  0  0  0  0  0  0
    8.3304    2.4354   15.3813 H   0  0  0  0  0  0  0  0  0  0  0  0
    9.1823    1.9469   16.4815 H   0  0  0  0  0  0  0  0  0  0  0  0
    9.6403    2.9317   13.4118 H   0  0  0  0  0  0  0  0  0  0  0  0
   10.6140    3.2083   14.7903 H   0  0  0  0  0  0  0  0  0  0  0  0
   12.4587    2.0263   13.7955 H   0  0  0  0  0  0  0  0  0  0  0  0
   11.4065    1.6641   12.3991 H   0  0  0  0  0  0  0  0  0  0  0  0
    9.1257   -1.4196   15.9927 H   0  0  0  0  0  0  0  0  0  0  0  0
    8.3616   -0.7772   19.2704 H   0  0  0  0  0  0  0  0  0  0  0  0
   10.7332   -3.3560   21.0330 H   0  0  0  0  0  0  0  0  0  0  0  0
   12.7063   -3.9048   20.1616 H   0  0  0  0  0  0  0  0  0  0  0  0
   13.2548   -3.3975   17.3447 H   0  0  0  0  0  0  0  0  0  0  0  0
   10.2945   -0.2692   12.7733 H   0  0  0  0  0  0  0  0  0  0  0  0
    8.0139   -0.3522   13.3679 H   0  0  0  0  0  0  0  0  0  0  0  0
    8.7876    1.1476   13.1021 H   0  0  0  0  0  0  0  0  0  0  0  0
  1  2  2  0
  2  3  1  0
  3  4  1  0
  4  5  1  0
  5  6  1  0
  6  7  2  0
  7  8  1  0
  8  9  1  0
  9 10  2  0
 10 11  1  0
 11 12  2  0
 12 13  1  0
 13 14  2  0
  2 15  1  0
 15 16  1  0
 16 17  1  0
 17 18  1  0
 18 19  1  0
 19 20  1  0
 20 21  2  0
 20 22  1  0
 22 23  1  0
 23 24  2  0
 24 25  1  0
 25 26  2  0
 26 27  1  0
 27 28  2  0
 22 29  1  0
 29 30  2  0
 29 31  1  0
 31 32  1  0
 14  6  1  0
 32 15  1  0
 14  9  1  0
 31 19  1  0
 28 23  1  0
  3 33  1  0
  3 34  1  0
  4 35  1  0
  4 36  1  0
  5 37  1  0
  5 38  1  0
  7 39  1  0
  8 40  1  0
 10 41  1  0
 11 42  1  0
 12 43  1  0
 13 44  1  0
 16 45  1  0
 16 46  1  0
 17 47  1  0
 17 48  1  0
 18 49  1  0
 18 50  1  0
 24 51  1  0
 25 52  1  0
 26 53  1  0
 27 54  1  0
 28 55  1  0
 31 56  1  0
 32 57  1  0
 32 58  1  0
M  END
>  <Energy>  (880) 
1848.4588645675576

>  <compound_id>  (880) 
52468

>  <target_id>  (880) 
1

>  <reference_id>  (880) 
76

>  <inspiration_ids>  (880) 
[40, 76]

>  <energy_score>  (880) 
1777.4706337758769

>  <distance_score>  (880) 
5.4849584882377185

>  <path>  (880) 
/opt/xchem-fragalysis-2/maxwin/BulkDock/SCRATCH/511024/C52468-P76/C52468-P76.minimised.mol

>  <scratch_subdir>  (880) 
/opt/xchem-fragalysis-2/maxwin/BulkDock/SCRATCH/511024/C52468-P76

>  <fragmenstein_runtime>  (880) 
17.41691756248474

>  <fragmenstein_outcome>  (880) 
too moved

>  <fragmenstein_mode>  (880) 
expansion

>  <fragmenstein_error>  (880) 


$$$$
C52469-P40
     RDKit          3D

 50 54  0  0  0  0  0  0  0  0999 V2000
    6.2685   -5.6162   24.2869 O   0  0  0  0  0  0  0  0  0  0  0  0
    5.9272   -4.4306   24.3454 C   0  0  0  0  0  0  0  0  0  0  0  0
    6.1810   -3.1837   22.9749 C   0  0  0  0  0  0  0  0  0  0  0  0
    6.7995   -2.7152   21.1446 C   0  0  0  0  0  0  0  0  0  0  0  0
    7.5435   -1.0300   20.2917 N   0  0  0  0  0  0  0  0  0  0  0  0
    8.2143   -0.0740   18.8141 C   0  0  0  0  0  0  0  0  0  0  0  0
    8.6672   -0.0582   17.0314 C   0  0  0  0  0  0  0  0  0  0  0  0
    7.7534    0.3021   16.0546 C   0  0  0  0  0  0  0  0  0  0  0  0
    8.1114    0.9226   14.8256 C   0  0  0  0  0  0  0  0  0  0  0  0
    9.4645    1.0592   14.4829 C   0  0  0  0  0  0  0  0  0  0  0  0
   10.2310    1.6923   13.4660 C   0  0  0  0  0  0  0  0  0  0  0  0
   11.5381    1.2743   13.5981 C   0  0  0  0  0  0  0  0  0  0  0  0
   11.5755    0.3716   14.6280 N   0  0  0  0  0  0  0  0  0  0  0  0
   10.3460    0.3206   15.2458 C   0  0  0  0  0  0  0  0  0  0  0  0
    9.9247   -0.3410   16.4162 C   0  0  0  0  0  0  0  0  0  0  0  0
    6.5592   -0.0658   20.2600 C   0  0  0  0  0  0  0  0  0  0  0  0
    5.1126   -0.6223   21.5989 C   0  0  0  0  0  0  0  0  0  0  0  0
    4.8411   -1.1115   23.2609 C   0  0  0  0  0  0  0  0  0  0  0  0
    5.5130   -2.2259   23.8658 N   0  0  0  0  0  0  0  0  0  0  0  0
    5.1527   -2.5228   25.1816 C   0  0  0  0  0  0  0  0  0  0  0  0
    4.6515   -1.6725   25.9115 O   0  0  0  0  0  0  0  0  0  0  0  0
    5.2700   -3.8543   25.4216 N   0  0  0  0  0  0  0  0  0  0  0  0
    4.5455   -4.5338   26.4654 C   0  0  0  0  0  0  0  0  0  0  0  0
    4.2265   -5.8953   26.3765 C   0  0  0  0  0  0  0  0  0  0  0  0
    3.3693   -6.5105   27.3029 C   0  0  0  0  0  0  0  0  0  0  0  0
    2.8192   -5.7890   28.3562 C   0  0  0  0  0  0  0  0  0  0  0  0
    3.1536   -4.4521   28.4985 C   0  0  0  0  0  0  0  0  0  0  0  0
    4.0083   -3.8414   27.5697 C   0  0  0  0  0  0  0  0  0  0  0  0
    6.7684   -4.1116   22.8465 H   0  0  0  0  0  0  0  0  0  0  0  0
    7.5519   -3.5247   21.0371 H   0  0  0  0  0  0  0  0  0  0  0  0
    5.8685   -2.9005   20.5302 H   0  0  0  0  0  0  0  0  0  0  0  0
    9.0369    0.3224   19.3620 H   0  0  0  0  0  0  0  0  0  0  0  0
    7.7823    0.9426   18.7292 H   0  0  0  0  0  0  0  0  0  0  0  0
    6.7128    0.0526   16.1869 H   0  0  0  0  0  0  0  0  0  0  0  0
    7.3308    1.2881   14.1660 H   0  0  0  0  0  0  0  0  0  0  0  0
    9.8653    2.3644   12.7049 H   0  0  0  0  0  0  0  0  0  0  0  0
   12.4257    1.5036   13.0256 H   0  0  0  0  0  0  0  0  0  0  0  0
   12.3996   -0.1216   14.9411 H   0  0  0  0  0  0  0  0  0  0  0  0
   10.6455   -1.0659   16.7726 H   0  0  0  0  0  0  0  0  0  0  0  0
    6.9684    0.9758   20.3158 H   0  0  0  0  0  0  0  0  0  0  0  0
    6.3111    0.3102   19.2275 H   0  0  0  0  0  0  0  0  0  0  0  0
    4.4984    0.2774   21.4549 H   0  0  0  0  0  0  0  0  0  0  0  0
    5.2714   -1.5336   21.1468 H   0  0  0  0  0  0  0  0  0  0  0  0
    3.8482   -1.5604   23.3278 H   0  0  0  0  0  0  0  0  0  0  0  0
    4.9013   -0.2425   23.9358 H   0  0  0  0  0  0  0  0  0  0  0  0
    4.5967   -6.5093   25.5567 H   0  0  0  0  0  0  0  0  0  0  0  0
    3.1369   -7.5603   27.1626 H   0  0  0  0  0  0  0  0  0  0  0  0
    2.1453   -6.2569   29.0642 H   0  0  0  0  0  0  0  0  0  0  0  0
    2.7553   -3.8654   29.3231 H   0  0  0  0  0  0  0  0  0  0  0  0
    4.2415   -2.7942   27.7471 H   0  0  0  0  0  0  0  0  0  0  0  0
  1  2  2  0
  2  3  1  0
  3  4  1  0
  4  5  1  0
  5  6  1  0
  6  7  1  0
  7  8  2  0
  8  9  1  0
  9 10  2  0
 10 11  1  0
 11 12  2  0
 12 13  1  0
 13 14  1  0
 14 15  2  0
  5 16  1  0
 16 17  1  0
 17 18  1  0
 18 19  1  0
 19 20  1  0
 20 21  2  0
 20 22  1  0
 22 23  1  0
 23 24  2  0
 24 25  1  0
 25 26  2  0
 26 27  1  0
 27 28  2  0
 22  2  1  0
 28 23  1  0
 19  3  1  0
 15  7  1  0
 14 10  1  0
  3 29  1  0
  4 30  1  0
  4 31  1  0
  6 32  1  0
  6 33  1  0
  8 34  1  0
  9 35  1  0
 11 36  1  0
 12 37  1  0
 13 38  1  0
 15 39  1  0
 16 40  1  0
 16 41  1  0
 17 42  1  0
 17 43  1  0
 18 44  1  0
 18 45  1  0
 24 46  1  0
 25 47  1  0
 26 48  1  0
 27 49  1  0
 28 50  1  0
M  END
>  <Energy>  (881) 
698.18594793062948

>  <compound_id>  (881) 
52469

>  <target_id>  (881) 
1

>  <reference_id>  (881) 
40

>  <inspiration_ids>  (881) 
[40, 76]

>  <energy_score>  (881) 
608.5508758324272

>  <distance_score>  (881) 
5.137571320794468

>  <path>  (881) 
/opt/xchem-fragalysis-2/maxwin/BulkDock/SCRATCH/511024/C52469-P40/C52469-P40.minimised.mol

>  <scratch_subdir>  (881) 
/opt/xchem-fragalysis-2/maxwin/BulkDock/SCRATCH/511024/C52469-P40

>  <fragmenstein_runtime>  (881) 
15.12669324874878

>  <fragmenstein_outcome>  (881) 
too moved

>  <fragmenstein_mode>  (881) 
expansion

>  <fragmenstein_error>  (881) 


$$$$
C52469-P76
     RDKit          3D

 50 54  0  0  0  0  0  0  0  0999 V2000
    7.2875   -1.1242   26.0745 O   0  0  0  0  0  0  0  0  0  0  0  0
    6.1155   -1.4710   25.9311 C   0  0  0  0  0  0  0  0  0  0  0  0
    5.3615   -1.9694   24.4042 C   0  0  0  0  0  0  0  0  0  0  0  0
    5.5050   -1.8809   22.4677 C   0  0  0  0  0  0  0  0  0  0  0  0
    5.8816   -0.5636   21.3189 N   0  0  0  0  0  0  0  0  0  0  0  0
    6.7431   -0.3730   19.5810 C   0  0  0  0  0  0  0  0  0  0  0  0
    5.9538   -0.9244   17.8608 C   0  0  0  0  0  0  0  0  0  0  0  0
    4.5692   -1.5777   17.4984 C   0  0  0  0  0  0  0  0  0  0  0  0
    4.0855   -1.9587   16.1033 C   0  0  0  0  0  0  0  0  0  0  0  0
    4.9760   -1.7884   14.9860 C   0  0  0  0  0  0  0  0  0  0  0  0
    4.8753   -2.0361   13.5987 C   0  0  0  0  0  0  0  0  0  0  0  0
    6.0828   -1.7103   13.0384 C   0  0  0  0  0  0  0  0  0  0  0  0
    6.9799   -1.4381   14.0489 N   0  0  0  0  0  0  0  0  0  0  0  0
    6.2793   -1.2610   15.2330 C   0  0  0  0  0  0  0  0  0  0  0  0
    6.6703   -0.6753   16.5330 C   0  0  0  0  0  0  0  0  0  0  0  0
    4.4929    0.4966   21.9746 C   0  0  0  0  0  0  0  0  0  0  0  0
    4.2711    0.3471   24.0479 C   0  0  0  0  0  0  0  0  0  0  0  0
    3.5432   -0.5690   25.0780 C   0  0  0  0  0  0  0  0  0  0  0  0
    4.0180   -1.9270   25.0451 N   0  0  0  0  0  0  0  0  0  0  0  0
    3.9872   -2.1811   26.4270 C   0  0  0  0  0  0  0  0  0  0  0  0
    2.9775   -2.5898   26.9913 O   0  0  0  0  0  0  0  0  0  0  0  0
    5.1680   -1.7083   26.9796 N   0  0  0  0  0  0  0  0  0  0  0  0
    5.4019   -1.8662   28.3833 C   0  0  0  0  0  0  0  0  0  0  0  0
    4.3251   -1.9284   29.3002 C   0  0  0  0  0  0  0  0  0  0  0  0
    4.5071   -2.2488   30.6480 C   0  0  0  0  0  0  0  0  0  0  0  0
    5.7866   -2.4876   31.1207 C   0  0  0  0  0  0  0  0  0  0  0  0
    6.8696   -2.3875   30.2478 C   0  0  0  0  0  0  0  0  0  0  0  0
    6.6817   -2.0732   28.8934 C   0  0  0  0  0  0  0  0  0  0  0  0
    5.8941   -2.8950   24.3858 H   0  0  0  0  0  0  0  0  0  0  0  0
    5.1875   -2.5546   21.6961 H   0  0  0  0  0  0  0  0  0  0  0  0
    6.1627   -2.7405   22.5553 H   0  0  0  0  0  0  0  0  0  0  0  0
    7.7136   -0.8243   19.7006 H   0  0  0  0  0  0  0  0  0  0  0  0
    7.0119    0.6789   19.4654 H   0  0  0  0  0  0  0  0  0  0  0  0
    3.7742   -1.7642   18.1757 H   0  0  0  0  0  0  0  0  0  0  0  0
    3.0915   -2.3778   15.9780 H   0  0  0  0  0  0  0  0  0  0  0  0
    4.0046   -2.3851   13.0607 H   0  0  0  0  0  0  0  0  0  0  0  0
    6.4114   -1.6861   12.0083 H   0  0  0  0  0  0  0  0  0  0  0  0
    7.9372   -1.1523   13.8717 H   0  0  0  0  0  0  0  0  0  0  0  0
    7.5189   -0.0450   16.6032 H   0  0  0  0  0  0  0  0  0  0  0  0
    5.3088    1.1579   21.8373 H   0  0  0  0  0  0  0  0  0  0  0  0
    3.6130    0.8579   21.4785 H   0  0  0  0  0  0  0  0  0  0  0  0
    4.3512   -0.6387   23.6852 H   0  0  0  0  0  0  0  0  0  0  0  0
    3.4364    1.0850   24.2293 H   0  0  0  0  0  0  0  0  0  0  0  0
    2.4928   -0.7097   24.9597 H   0  0  0  0  0  0  0  0  0  0  0  0
    3.6537   -0.0545   26.0483 H   0  0  0  0  0  0  0  0  0  0  0  0
    3.3050   -1.7202   28.9867 H   0  0  0  0  0  0  0  0  0  0  0  0
    3.6516   -2.3002   31.3158 H   0  0  0  0  0  0  0  0  0  0  0  0
    5.9481   -2.7322   32.1668 H   0  0  0  0  0  0  0  0  0  0  0  0
    7.8779   -2.5607   30.6172 H   0  0  0  0  0  0  0  0  0  0  0  0
    7.5548   -2.0456   28.2468 H   0  0  0  0  0  0  0  0  0  0  0  0
  1  2  2  0
  2  3  1  0
  3  4  1  0
  4  5  1  0
  5  6  1  0
  6  7  1  0
  7  8  2  0
  8  9  1  0
  9 10  2  0
 10 11  1  0
 11 12  2  0
 12 13  1  0
 13 14  1  0
 14 15  2  0
  5 16  1  0
 16 17  1  0
 17 18  1  0
 18 19  1  0
 19 20  1  0
 20 21  2  0
 20 22  1  0
 22 23  1  0
 23 24  2  0
 24 25  1  0
 25 26  2  0
 26 27  1  0
 27 28  2  0
 22  2  1  0
 28 23  1  0
 19  3  1  0
 15  7  1  0
 14 10  1  0
  3 29  1  0
  4 30  1  0
  4 31  1  0
  6 32  1  0
  6 33  1  0
  8 34  1  0
  9 35  1  0
 11 36  1  0
 12 37  1  0
 13 38  1  0
 15 39  1  0
 16 40  1  0
 16 41  1  0
 17 42  1  0
 17 43  1  0
 18 44  1  0
 18 45  1  0
 24 46  1  0
 25 47  1  0
 26 48  1  0
 27 49  1  0
 28 50  1  0
M  END
>  <Energy>  (882) 
681.05648691106455

>  <compound_id>  (882) 
52469

>  <target_id>  (882) 
1

>  <reference_id>  (882) 
76

>  <inspiration_ids>  (882) 
[40, 76]

>  <energy_score>  (882) 
591.4214148128663

>  <distance_score>  (882) 
7.793388174066515

>  <path>  (882) 
/opt/xchem-fragalysis-2/maxwin/BulkDock/SCRATCH/511024/C52469-P76/C52469-P76.minimised.mol

>  <scratch_subdir>  (882) 
/opt/xchem-fragalysis-2/maxwin/BulkDock/SCRATCH/511024/C52469-P76

>  <fragmenstein_runtime>  (882) 
16.162134647369385

>  <fragmenstein_outcome>  (882) 
too moved

>  <fragmenstein_mode>  (882) 
expansion

>  <fragmenstein_error>  (882) 


$$$$
C52470-P40
     RDKit          3D

 52 56  0  0  0  0  0  0  0  0999 V2000
    7.6058    0.3811   19.5975 O   0  0  0  0  0  0  0  0  0  0  0  0
    7.3046    1.5268   19.8629 C   0  0  0  0  0  0  0  0  0  0  0  0
    6.0510    2.0111   21.3932 C   0  0  0  0  0  0  0  0  0  0  0  0
    4.6649    1.5698   22.8177 C   0  0  0  0  0  0  0  0  0  0  0  0
    4.7723    0.5023   23.9186 C   0  0  0  0  0  0  0  0  0  0  0  0
    4.0997    0.8267   25.0544 N   0  0  0  0  0  0  0  0  0  0  0  0
    3.4426    2.0066   24.9030 C   0  0  0  0  0  0  0  0  0  0  0  0
    2.5933    2.6000   25.8486 C   0  0  0  0  0  0  0  0  0  0  0  0
    1.9866    3.7961   25.5140 C   0  0  0  0  0  0  0  0  0  0  0  0
    2.2652    4.3854   24.2897 C   0  0  0  0  0  0  0  0  0  0  0  0
    3.1444    3.7921   23.3619 C   0  0  0  0  0  0  0  0  0  0  0  0
    3.7414    2.5409   23.6244 C   0  0  0  0  0  0  0  0  0  0  0  0
    7.6382    2.8405   19.1182 N   0  0  0  0  0  0  0  0  0  0  0  0
    8.3026    3.0625   17.8468 C   0  0  0  0  0  0  0  0  0  0  0  0
    7.8176    4.5110   17.3489 C   0  0  0  0  0  0  0  0  0  0  0  0
    7.8779    5.6844   18.4249 C   0  0  0  0  0  0  0  0  0  0  0  0
    9.2173    5.8064   19.0026 N   0  0  0  0  0  0  0  0  0  0  0  0
    9.5709    6.1731   20.3766 C   0  0  0  0  0  0  0  0  0  0  0  0
    8.7961    6.6615   21.1831 O   0  0  0  0  0  0  0  0  0  0  0  0
   10.8752    5.6659   20.5891 N   0  0  0  0  0  0  0  0  0  0  0  0
   11.3576    4.8571   21.6709 C   0  0  0  0  0  0  0  0  0  0  0  0
   12.5662    4.1294   21.5149 C   0  0  0  0  0  0  0  0  0  0  0  0
   12.9264    3.0998   22.3849 C   0  0  0  0  0  0  0  0  0  0  0  0
   12.0882    2.7746   23.4362 C   0  0  0  0  0  0  0  0  0  0  0  0
   10.9440    3.5387   23.6557 C   0  0  0  0  0  0  0  0  0  0  0  0
   10.5895    4.5893   22.7933 C   0  0  0  0  0  0  0  0  0  0  0  0
   11.2289    5.2005   19.3733 C   0  0  0  0  0  0  0  0  0  0  0  0
   12.2762    5.4264   18.7769 O   0  0  0  0  0  0  0  0  0  0  0  0
    9.9615    4.6141   18.8202 C   0  0  0  0  0  0  0  0  0  0  0  0
    9.0478    3.4859   19.6820 C   0  0  0  0  0  0  0  0  0  0  0  0
    5.0404    1.2256   21.0545 H   0  0  0  0  0  0  0  0  0  0  0  0
    6.0558    3.0161   20.8976 H   0  0  0  0  0  0  0  0  0  0  0  0
    5.0909   -0.5146   23.8306 H   0  0  0  0  0  0  0  0  0  0  0  0
    3.9991    0.2148   25.8498 H   0  0  0  0  0  0  0  0  0  0  0  0
    2.3987    2.1285   26.8066 H   0  0  0  0  0  0  0  0  0  0  0  0
    1.3084    4.2796   26.2110 H   0  0  0  0  0  0  0  0  0  0  0  0
    1.8009    5.3357   24.0346 H   0  0  0  0  0  0  0  0  0  0  0  0
    3.3199    4.3048   22.4209 H   0  0  0  0  0  0  0  0  0  0  0  0
    9.3257    2.6880   17.6944 H   0  0  0  0  0  0  0  0  0  0  0  0
    7.8189    2.3841   17.1396 H   0  0  0  0  0  0  0  0  0  0  0  0
    8.3929    4.7864   16.4564 H   0  0  0  0  0  0  0  0  0  0  0  0
    6.7704    4.4289   17.0291 H   0  0  0  0  0  0  0  0  0  0  0  0
    7.6318    6.6406   17.9528 H   0  0  0  0  0  0  0  0  0  0  0  0
    7.1528    5.5113   19.2278 H   0  0  0  0  0  0  0  0  0  0  0  0
   13.2422    4.3330   20.6857 H   0  0  0  0  0  0  0  0  0  0  0  0
   13.8443    2.5406   22.2238 H   0  0  0  0  0  0  0  0  0  0  0  0
   12.3377    1.9554   24.1068 H   0  0  0  0  0  0  0  0  0  0  0  0
   10.3132    3.3148   24.5146 H   0  0  0  0  0  0  0  0  0  0  0  0
    9.6796    5.1491   22.9968 H   0  0  0  0  0  0  0  0  0  0  0  0
   10.1534    4.4448   17.7574 H   0  0  0  0  0  0  0  0  0  0  0  0
    8.7249    3.9932   20.5863 H   0  0  0  0  0  0  0  0  0  0  0  0
    9.6874    2.6710   20.0125 H   0  0  0  0  0  0  0  0  0  0  0  0
  1  2  2  0
  2  3  1  0
  3  4  1  0
  4  5  2  0
  5  6  1  0
  6  7  1  0
  7  8  2  0
  8  9  1  0
  9 10  2  0
 10 11  1  0
 11 12  2  0
  2 13  1  0
 13 14  1  0
 14 15  1  0
 15 16  1  0
 16 17  1  0
 17 18  1  0
 18 19  2  0
 18 20  1  0
 20 21  1  0
 21 22  2  0
 22 23  1  0
 23 24  2  0
 24 25  1  0
 25 26  2  0
 20 27  1  0
 27 28  2  0
 27 29  1  0
 29 30  1  0
 12  4  1  0
 30 13  1  0
 12  7  1  0
 29 17  1  0
 26 21  1  0
  3 31  1  0
  3 32  1  0
  5 33  1  0
  6 34  1  0
  8 35  1  0
  9 36  1  0
 10 37  1  0
 11 38  1  0
 14 39  1  0
 14 40  1  0
 15 41  1  0
 15 42  1  0
 16 43  1  0
 16 44  1  0
 22 45  1  0
 23 46  1  0
 24 47  1  0
 25 48  1  0
 26 49  1  0
 29 50  1  0
 30 51  1  0
 30 52  1  0
M  END
>  <Energy>  (883) 
457.48023923407897

>  <compound_id>  (883) 
52470

>  <target_id>  (883) 
1

>  <reference_id>  (883) 
40

>  <inspiration_ids>  (883) 
[40, 76]

>  <energy_score>  (883) 
363.8597846463116

>  <distance_score>  (883) 
9.8766308675373

>  <path>  (883) 
/opt/xchem-fragalysis-2/maxwin/BulkDock/SCRATCH/511024/C52470-P40/C52470-P40.minimised.mol

>  <scratch_subdir>  (883) 
/opt/xchem-fragalysis-2/maxwin/BulkDock/SCRATCH/511024/C52470-P40

>  <fragmenstein_runtime>  (883) 
21.25431180000305

>  <fragmenstein_outcome>  (883) 
too moved

>  <fragmenstein_mode>  (883) 
expansion

>  <fragmenstein_error>  (883) 


$$$$
C52470-P76
     RDKit          3D

 52 56  0  0  0  0  0  0  0  0999 V2000
    8.1202    0.6186   19.2610 O   0  0  0  0  0  0  0  0  0  0  0  0
    7.3687   -0.2818   18.9593 C   0  0  0  0  0  0  0  0  0  0  0  0
    6.6587   -1.1751   20.6689 C   0  0  0  0  0  0  0  0  0  0  0  0
    5.4017   -1.7274   22.1877 C   0  0  0  0  0  0  0  0  0  0  0  0
    5.9252   -2.3747   23.3334 C   0  0  0  0  0  0  0  0  0  0  0  0
    5.7721   -1.9601   24.6623 N   0  0  0  0  0  0  0  0  0  0  0  0
    4.7821   -1.0402   24.8148 C   0  0  0  0  0  0  0  0  0  0  0  0
    4.3089   -0.5875   26.0584 C   0  0  0  0  0  0  0  0  0  0  0  0
    3.3674   -1.4203   26.5600 C   0  0  0  0  0  0  0  0  0  0  0  0
    2.9186   -2.3594   25.6725 C   0  0  0  0  0  0  0  0  0  0  0  0
    3.2387   -2.3627   24.2183 C   0  0  0  0  0  0  0  0  0  0  0  0
    4.2753   -1.5334   23.6261 C   0  0  0  0  0  0  0  0  0  0  0  0
    6.9891   -0.4516   17.1228 N   0  0  0  0  0  0  0  0  0  0  0  0
    7.3749    0.4349   15.9049 C   0  0  0  0  0  0  0  0  0  0  0  0
    8.3912    0.3969   14.5249 C   0  0  0  0  0  0  0  0  0  0  0  0
    9.7321    0.2865   13.8958 C   0  0  0  0  0  0  0  0  0  0  0  0
   10.3836   -0.8214   14.4886 N   0  0  0  0  0  0  0  0  0  0  0  0
   11.7309   -1.0891   14.2376 C   0  0  0  0  0  0  0  0  0  0  0  0
   12.4132   -0.4915   13.4184 O   0  0  0  0  0  0  0  0  0  0  0  0
   12.1162   -2.0442   15.1360 N   0  0  0  0  0  0  0  0  0  0  0  0
   13.4594   -2.3691   15.5016 C   0  0  0  0  0  0  0  0  0  0  0  0
   14.5635   -1.7788   14.8676 C   0  0  0  0  0  0  0  0  0  0  0  0
   15.8767   -2.0741   15.2531 C   0  0  0  0  0  0  0  0  0  0  0  0
   16.1172   -2.9577   16.2968 C   0  0  0  0  0  0  0  0  0  0  0  0
   15.0469   -3.5395   16.9589 C   0  0  0  0  0  0  0  0  0  0  0  0
   13.7375   -3.2461   16.5674 C   0  0  0  0  0  0  0  0  0  0  0  0
   10.9794   -2.6192   15.6495 C   0  0  0  0  0  0  0  0  0  0  0  0
   10.9904   -3.7069   16.2073 O   0  0  0  0  0  0  0  0  0  0  0  0
    9.6624   -1.8137   15.2514 C   0  0  0  0  0  0  0  0  0  0  0  0
    7.9667   -1.5149   15.8950 C   0  0  0  0  0  0  0  0  0  0  0  0
    6.2136   -2.1540   20.4395 H   0  0  0  0  0  0  0  0  0  0  0  0
    6.1963   -0.2050   20.9300 H   0  0  0  0  0  0  0  0  0  0  0  0
    6.5738   -3.2909   23.3089 H   0  0  0  0  0  0  0  0  0  0  0  0
    6.2567   -2.3673   25.4484 H   0  0  0  0  0  0  0  0  0  0  0  0
    4.9313   -0.0049   26.7275 H   0  0  0  0  0  0  0  0  0  0  0  0
    3.0519   -1.3973   27.5926 H   0  0  0  0  0  0  0  0  0  0  0  0
    2.2327   -3.0716   26.1012 H   0  0  0  0  0  0  0  0  0  0  0  0
    2.7046   -2.9920   23.5296 H   0  0  0  0  0  0  0  0  0  0  0  0
    7.6363    1.4114   16.3561 H   0  0  0  0  0  0  0  0  0  0  0  0
    6.3591    0.5510   15.5059 H   0  0  0  0  0  0  0  0  0  0  0  0
    7.8367   -0.1364   13.7431 H   0  0  0  0  0  0  0  0  0  0  0  0
    8.5668    1.4541   14.6622 H   0  0  0  0  0  0  0  0  0  0  0  0
   10.3045    1.2208   13.8353 H   0  0  0  0  0  0  0  0  0  0  0  0
    9.6490    0.2112   12.8150 H   0  0  0  0  0  0  0  0  0  0  0  0
   14.4485   -1.0810   14.0434 H   0  0  0  0  0  0  0  0  0  0  0  0
   16.7082   -1.6104   14.7279 H   0  0  0  0  0  0  0  0  0  0  0  0
   17.1371   -3.1863   16.5936 H   0  0  0  0  0  0  0  0  0  0  0  0
   15.2264   -4.2194   17.7873 H   0  0  0  0  0  0  0  0  0  0  0  0
   12.9536   -3.7255   17.1450 H   0  0  0  0  0  0  0  0  0  0  0  0
    9.3158   -2.5616   14.5370 H   0  0  0  0  0  0  0  0  0  0  0  0
    7.5866   -2.5199   15.8806 H   0  0  0  0  0  0  0  0  0  0  0  0
    7.3349   -1.4172   14.9857 H   0  0  0  0  0  0  0  0  0  0  0  0
  1  2  2  0
  2  3  1  0
  3  4  1  0
  4  5  2  0
  5  6  1  0
  6  7  1  0
  7  8  2  0
  8  9  1  0
  9 10  2  0
 10 11  1  0
 11 12  2  0
  2 13  1  0
 13 14  1  0
 14 15  1  0
 15 16  1  0
 16 17  1  0
 17 18  1  0
 18 19  2  0
 18 20  1  0
 20 21  1  0
 21 22  2  0
 22 23  1  0
 23 24  2  0
 24 25  1  0
 25 26  2  0
 20 27  1  0
 27 28  2  0
 27 29  1  0
 29 30  1  0
 12  4  1  0
 30 13  1  0
 12  7  1  0
 29 17  1  0
 26 21  1  0
  3 31  1  0
  3 32  1  0
  5 33  1  0
  6 34  1  0
  8 35  1  0
  9 36  1  0
 10 37  1  0
 11 38  1  0
 14 39  1  0
 14 40  1  0
 15 41  1  0
 15 42  1  0
 16 43  1  0
 16 44  1  0
 22 45  1  0
 23 46  1  0
 24 47  1  0
 25 48  1  0
 26 49  1  0
 29 50  1  0
 30 51  1  0
 30 52  1  0
M  END
>  <Energy>  (884) 
927.25759609231284

>  <compound_id>  (884) 
52470

>  <target_id>  (884) 
1

>  <reference_id>  (884) 
76

>  <inspiration_ids>  (884) 
[40, 76]

>  <energy_score>  (884) 
833.6371415045433

>  <distance_score>  (884) 
6.176120620091938

>  <path>  (884) 
/opt/xchem-fragalysis-2/maxwin/BulkDock/SCRATCH/511024/C52470-P76/C52470-P76.minimised.mol

>  <scratch_subdir>  (884) 
/opt/xchem-fragalysis-2/maxwin/BulkDock/SCRATCH/511024/C52470-P76

>  <fragmenstein_runtime>  (884) 
12.82623839378357

>  <fragmenstein_outcome>  (884) 
too moved

>  <fragmenstein_mode>  (884) 
expansion

>  <fragmenstein_error>  (884) 


$$$$
C9161-P40
     RDKit          3D

 44 47  0  0  0  0  0  0  0  0999 V2000
    8.9526   -2.0120   28.1637 C   0  0  0  0  0  0  0  0  0  0  0  0
    9.0933   -2.8461   26.9535 N   0  0  0  0  0  0  0  0  0  0  0  0
    8.2800   -4.1010   27.1289 C   0  0  0  0  0  0  0  0  0  0  0  0
    6.7495   -3.9733   27.3190 C   0  0  0  0  0  0  0  0  0  0  0  0
    6.0221   -2.8483   26.9045 C   0  0  0  0  0  0  0  0  0  0  0  0
    4.6332   -2.7323   27.0830 C   0  0  0  0  0  0  0  0  0  0  0  0
    3.9582   -3.8190   27.6406 C   0  0  0  0  0  0  0  0  0  0  0  0
    2.6235   -3.9840   27.9319 N   0  0  0  0  0  0  0  0  0  0  0  0
    2.4007   -5.2499   28.4120 C   0  0  0  0  0  0  0  0  0  0  0  0
    3.6168   -5.8928   28.4651 C   0  0  0  0  0  0  0  0  0  0  0  0
    4.6155   -4.9904   28.0062 C   0  0  0  0  0  0  0  0  0  0  0  0
    6.0221   -5.0614   27.8567 C   0  0  0  0  0  0  0  0  0  0  0  0
   10.5831   -3.0855   26.7762 C   0  0  0  0  0  0  0  0  0  0  0  0
   11.2005   -3.3677   25.3953 C   0  0  0  0  0  0  0  0  0  0  0  0
   11.4043   -4.6441   24.8363 C   0  0  0  0  0  0  0  0  0  0  0  0
   12.0853   -4.6576   23.6920 N   0  0  0  0  0  0  0  0  0  0  0  0
   12.4461   -3.3679   23.4815 N   0  0  0  0  0  0  0  0  0  0  0  0
   13.2612   -3.0546   22.3375 C   0  0  0  0  0  0  0  0  0  0  0  0
   13.9517   -1.8455   22.2219 C   0  0  0  0  0  0  0  0  0  0  0  0
   14.7060   -1.5693   21.0691 C   0  0  0  0  0  0  0  0  0  0  0  0
   14.7795   -2.4922   20.0240 C   0  0  0  0  0  0  0  0  0  0  0  0
   14.1074   -3.7044   20.1323 C   0  0  0  0  0  0  0  0  0  0  0  0
   13.3630   -3.9867   21.2845 C   0  0  0  0  0  0  0  0  0  0  0  0
   11.9668   -2.5743   24.5327 C   0  0  0  0  0  0  0  0  0  0  0  0
    9.4793   -1.0592   28.0330 H   0  0  0  0  0  0  0  0  0  0  0  0
    9.3582   -2.5115   29.0516 H   0  0  0  0  0  0  0  0  0  0  0  0
    7.9158   -1.7395   28.3749 H   0  0  0  0  0  0  0  0  0  0  0  0
    8.6754   -4.6516   27.9933 H   0  0  0  0  0  0  0  0  0  0  0  0
    8.4339   -4.7346   26.2483 H   0  0  0  0  0  0  0  0  0  0  0  0
    6.5498   -2.0282   26.4166 H   0  0  0  0  0  0  0  0  0  0  0  0
    4.1149   -1.8315   26.7705 H   0  0  0  0  0  0  0  0  0  0  0  0
    1.9224   -3.2641   27.8076 H   0  0  0  0  0  0  0  0  0  0  0  0
    1.4051   -5.5630   28.6906 H   0  0  0  0  0  0  0  0  0  0  0  0
    3.8000   -6.8983   28.8051 H   0  0  0  0  0  0  0  0  0  0  0  0
    6.5438   -5.9711   28.1419 H   0  0  0  0  0  0  0  0  0  0  0  0
   11.1149   -2.1830   27.1124 H   0  0  0  0  0  0  0  0  0  0  0  0
   10.8996   -3.8811   27.4651 H   0  0  0  0  0  0  0  0  0  0  0  0
   11.0724   -5.5920   25.2407 H   0  0  0  0  0  0  0  0  0  0  0  0
   13.9081   -1.0984   23.0097 H   0  0  0  0  0  0  0  0  0  0  0  0
   15.2374   -0.6239   20.9917 H   0  0  0  0  0  0  0  0  0  0  0  0
   15.3633   -2.2718   19.1349 H   0  0  0  0  0  0  0  0  0  0  0  0
   14.1524   -4.4372   19.3281 H   0  0  0  0  0  0  0  0  0  0  0  0
   12.8336   -4.9372   21.3334 H   0  0  0  0  0  0  0  0  0  0  0  0
   12.2057   -1.5225   24.5704 H   0  0  0  0  0  0  0  0  0  0  0  0
  1  2  1  0
  2  3  1  0
  3  4  1  0
  4  5  2  0
  5  6  1  0
  6  7  2  0
  7  8  1  0
  8  9  1  0
  9 10  2  0
 10 11  1  0
 11 12  2  0
  2 13  1  0
 13 14  1  0
 14 15  1  0
 15 16  2  0
 16 17  1  0
 17 18  1  0
 18 19  2  0
 19 20  1  0
 20 21  2  0
 21 22  1  0
 22 23  2  0
 17 24  1  0
 12  4  1  0
 24 14  2  0
 11  7  1  0
 23 18  1  0
  1 25  1  0
  1 26  1  0
  1 27  1  0
  3 28  1  0
  3 29  1  0
  5 30  1  0
  6 31  1  0
  8 32  1  0
  9 33  1  0
 10 34  1  0
 12 35  1  0
 13 36  1  0
 13 37  1  0
 15 38  1  0
 19 39  1  0
 20 40  1  0
 21 41  1  0
 22 42  1  0
 23 43  1  0
 24 44  1  0
M  END
>  <Energy>  (885) 
77.033437871673655

>  <compound_id>  (885) 
9161

>  <target_id>  (885) 
1

>  <reference_id>  (885) 
40

>  <inspiration_ids>  (885) 
[40, 76]

>  <energy_score>  (885) 
-12.748022877509868

>  <distance_score>  (885) 
8.166118567150962

>  <path>  (885) 
/opt/xchem-fragalysis-2/maxwin/BulkDock/SCRATCH/511024/C9161-P40/C9161-P40.minimised.mol

>  <scratch_subdir>  (885) 
/opt/xchem-fragalysis-2/maxwin/BulkDock/SCRATCH/511024/C9161-P40

>  <fragmenstein_runtime>  (885) 
9.941882133483887

>  <fragmenstein_outcome>  (885) 
too moved

>  <fragmenstein_mode>  (885) 
expansion

>  <fragmenstein_error>  (885) 


$$$$
C9161-P76
     RDKit          3D

 44 47  0  0  0  0  0  0  0  0999 V2000
   11.4045    1.5447   22.8757 C   0  0  0  0  0  0  0  0  0  0  0  0
    9.9524    1.2350   22.4310 N   0  0  0  0  0  0  0  0  0  0  0  0
    9.3104    2.1023   23.6097 C   0  0  0  0  0  0  0  0  0  0  0  0
    9.1337    1.3441   25.0750 C   0  0  0  0  0  0  0  0  0  0  0  0
    9.6847    0.0710   25.3151 C   0  0  0  0  0  0  0  0  0  0  0  0
    9.0973   -0.8650   26.1926 C   0  0  0  0  0  0  0  0  0  0  0  0
    7.9507   -0.4695   26.8753 C   0  0  0  0  0  0  0  0  0  0  0  0
    7.0223   -1.2078   27.5751 N   0  0  0  0  0  0  0  0  0  0  0  0
    6.0758   -0.3775   28.1137 C   0  0  0  0  0  0  0  0  0  0  0  0
    6.3847    0.9100   27.7290 C   0  0  0  0  0  0  0  0  0  0  0  0
    7.5408    0.8605   26.8911 C   0  0  0  0  0  0  0  0  0  0  0  0
    8.2311    1.8059   26.0648 C   0  0  0  0  0  0  0  0  0  0  0  0
    9.4179    1.0335   20.6444 C   0  0  0  0  0  0  0  0  0  0  0  0
    9.9046   -0.4416   19.3582 C   0  0  0  0  0  0  0  0  0  0  0  0
   11.3344    0.1762   20.8152 C   0  0  0  0  0  0  0  0  0  0  0  0
   13.0100   -0.5248   20.4937 N   0  0  0  0  0  0  0  0  0  0  0  0
   13.1700   -0.8755   18.6878 N   0  0  0  0  0  0  0  0  0  0  0  0
   14.3763   -1.5164   18.1903 C   0  0  0  0  0  0  0  0  0  0  0  0
   14.3768   -2.1846   16.9543 C   0  0  0  0  0  0  0  0  0  0  0  0
   15.5439   -2.7908   16.4967 C   0  0  0  0  0  0  0  0  0  0  0  0
   16.7002   -2.7316   17.2684 C   0  0  0  0  0  0  0  0  0  0  0  0
   16.6916   -2.0722   18.4995 C   0  0  0  0  0  0  0  0  0  0  0  0
   15.5281   -1.4628   18.9686 C   0  0  0  0  0  0  0  0  0  0  0  0
   11.3074   -1.0486   17.8254 C   0  0  0  0  0  0  0  0  0  0  0  0
   12.1008    0.7043   22.8056 H   0  0  0  0  0  0  0  0  0  0  0  0
   11.5028    1.7403   23.9537 H   0  0  0  0  0  0  0  0  0  0  0  0
   11.7784    2.4593   22.3953 H   0  0  0  0  0  0  0  0  0  0  0  0
    9.9370    2.9833   23.8272 H   0  0  0  0  0  0  0  0  0  0  0  0
    8.4334    2.5993   23.2521 H   0  0  0  0  0  0  0  0  0  0  0  0
   10.5126   -0.2785   24.7030 H   0  0  0  0  0  0  0  0  0  0  0  0
    9.4612   -1.8876   26.2255 H   0  0  0  0  0  0  0  0  0  0  0  0
    6.9976   -2.2189   27.5976 H   0  0  0  0  0  0  0  0  0  0  0  0
    5.2525   -0.7756   28.6901 H   0  0  0  0  0  0  0  0  0  0  0  0
    5.7980    1.7888   27.9593 H   0  0  0  0  0  0  0  0  0  0  0  0
    7.8693    2.8310   26.0407 H   0  0  0  0  0  0  0  0  0  0  0  0
    8.3358    1.0914   20.5504 H   0  0  0  0  0  0  0  0  0  0  0  0
    9.7409    1.9900   20.1855 H   0  0  0  0  0  0  0  0  0  0  0  0
   11.4984    1.2707   20.9104 H   0  0  0  0  0  0  0  0  0  0  0  0
   13.4974   -2.2523   16.3225 H   0  0  0  0  0  0  0  0  0  0  0  0
   15.5608   -3.3049   15.5390 H   0  0  0  0  0  0  0  0  0  0  0  0
   17.6139   -3.2031   16.9140 H   0  0  0  0  0  0  0  0  0  0  0  0
   17.5973   -2.0380   19.1010 H   0  0  0  0  0  0  0  0  0  0  0  0
   15.5342   -0.9640   19.9364 H   0  0  0  0  0  0  0  0  0  0  0  0
   11.4402   -1.8848   17.0300 H   0  0  0  0  0  0  0  0  0  0  0  0
  1  2  1  0
  2  3  1  0
  3  4  1  0
  4  5  2  0
  5  6  1  0
  6  7  2  0
  7  8  1  0
  8  9  1  0
  9 10  2  0
 10 11  1  0
 11 12  2  0
  2 13  1  0
 13 14  1  0
 14 15  1  0
 15 16  2  0
 16 17  1  0
 17 18  1  0
 18 19  2  0
 19 20  1  0
 20 21  2  0
 21 22  1  0
 22 23  2  0
 17 24  1  0
 12  4  1  0
 24 14  2  0
 11  7  1  0
 23 18  1  0
  1 25  1  0
  1 26  1  0
  1 27  1  0
  3 28  1  0
  3 29  1  0
  5 30  1  0
  6 31  1  0
  8 32  1  0
  9 33  1  0
 10 34  1  0
 12 35  1  0
 13 36  1  0
 13 37  1  0
 15 38  1  0
 19 39  1  0
 20 40  1  0
 21 41  1  0
 22 42  1  0
 23 43  1  0
 24 44  1  0
M  END
>  <Energy>  (886) 
1100.5813921501176

>  <compound_id>  (886) 
9161

>  <target_id>  (886) 
1

>  <reference_id>  (886) 
76

>  <inspiration_ids>  (886) 
[40, 76]

>  <energy_score>  (886) 
1010.7999314009295

>  <distance_score>  (886) 
9.206507113944085

>  <path>  (886) 
/opt/xchem-fragalysis-2/maxwin/BulkDock/SCRATCH/511024/C9161-P76/C9161-P76.minimised.mol

>  <scratch_subdir>  (886) 
/opt/xchem-fragalysis-2/maxwin/BulkDock/SCRATCH/511024/C9161-P76

>  <fragmenstein_runtime>  (886) 
10.187514305114746

>  <fragmenstein_outcome>  (886) 
too moved

>  <fragmenstein_mode>  (886) 
expansion

>  <fragmenstein_error>  (886) 


$$$$
C52474-P40
     RDKit          3D

 38 40  0  0  0  0  0  0  0  0999 V2000
    7.1402   -4.4274   19.8776 O   0  0  0  0  0  0  0  0  0  0  0  0
    6.8218   -5.5234   19.5794 C   0  0  0  0  0  0  0  0  0  0  0  0
    6.6408   -6.6810   21.2639 C   0  0  0  0  0  0  0  0  0  0  0  0
    6.2638   -6.4638   23.1152 C   0  0  0  0  0  0  0  0  0  0  0  0
    6.4726   -5.2859   23.7641 C   0  0  0  0  0  0  0  0  0  0  0  0
    6.2786   -5.2387   25.0968 N   0  0  0  0  0  0  0  0  0  0  0  0
    5.3656   -6.1853   25.4015 C   0  0  0  0  0  0  0  0  0  0  0  0
    4.5735   -6.2577   26.5598 C   0  0  0  0  0  0  0  0  0  0  0  0
    3.5678   -7.2028   26.5964 C   0  0  0  0  0  0  0  0  0  0  0  0
    3.4200   -8.0711   25.5298 C   0  0  0  0  0  0  0  0  0  0  0  0
    4.2588   -7.9886   24.4043 C   0  0  0  0  0  0  0  0  0  0  0  0
    5.2853   -7.0123   24.2541 C   0  0  0  0  0  0  0  0  0  0  0  0
    6.6537   -6.1594   18.1923 N   0  0  0  0  0  0  0  0  0  0  0  0
    6.9980   -5.5013   16.5217 C   0  0  0  0  0  0  0  0  0  0  0  0
    8.1936   -4.0899   15.7481 C   0  0  0  0  0  0  0  0  0  0  0  0
    8.9069   -3.2469   15.1562 C   0  0  0  0  0  0  0  0  0  0  0  0
   10.1203   -2.4356   14.9475 C   0  0  0  0  0  0  0  0  0  0  0  0
   10.0974   -1.0437   15.0361 C   0  0  0  0  0  0  0  0  0  0  0  0
   11.2893   -0.3148   14.9414 C   0  0  0  0  0  0  0  0  0  0  0  0
   12.5143   -0.9733   14.8236 C   0  0  0  0  0  0  0  0  0  0  0  0
   12.5517   -2.3631   14.7861 C   0  0  0  0  0  0  0  0  0  0  0  0
   11.3613   -3.0876   14.8487 C   0  0  0  0  0  0  0  0  0  0  0  0
    6.9501   -7.4454   20.5871 H   0  0  0  0  0  0  0  0  0  0  0  0
    5.8381   -7.3474   21.4577 H   0  0  0  0  0  0  0  0  0  0  0  0
    6.6727   -4.3898   23.2410 H   0  0  0  0  0  0  0  0  0  0  0  0
    6.4923   -4.4176   25.6459 H   0  0  0  0  0  0  0  0  0  0  0  0
    4.7126   -5.5512   27.3713 H   0  0  0  0  0  0  0  0  0  0  0  0
    2.9156   -7.2559   27.4571 H   0  0  0  0  0  0  0  0  0  0  0  0
    2.6554   -8.8428   25.5224 H   0  0  0  0  0  0  0  0  0  0  0  0
    4.0422   -8.6804   23.6124 H   0  0  0  0  0  0  0  0  0  0  0  0
    6.2897   -7.0940   18.2953 H   0  0  0  0  0  0  0  0  0  0  0  0
    5.9482   -5.2244   16.4546 H   0  0  0  0  0  0  0  0  0  0  0  0
    7.0369   -6.3044   15.7903 H   0  0  0  0  0  0  0  0  0  0  0  0
    9.1502   -0.5187   15.1334 H   0  0  0  0  0  0  0  0  0  0  0  0
   11.2544    0.7713   14.9656 H   0  0  0  0  0  0  0  0  0  0  0  0
   13.4358   -0.4007   14.7669 H   0  0  0  0  0  0  0  0  0  0  0  0
   13.5012   -2.8869   14.7188 H   0  0  0  0  0  0  0  0  0  0  0  0
   11.4106   -4.1730   14.8604 H   0  0  0  0  0  0  0  0  0  0  0  0
  1  2  2  0
  2  3  1  0
  3  4  1  0
  4  5  2  0
  5  6  1  0
  6  7  1  0
  7  8  2  0
  8  9  1  0
  9 10  2  0
 10 11  1  0
 11 12  2  0
  2 13  1  0
 13 14  1  0
 14 15  1  0
 15 16  3  0
 16 17  1  0
 17 18  2  0
 18 19  1  0
 19 20  2  0
 20 21  1  0
 21 22  2  0
 12  4  1  0
 22 17  1  0
 12  7  1  0
  3 23  1  0
  3 24  1  0
  5 25  1  0
  6 26  1  0
  8 27  1  0
  9 28  1  0
 10 29  1  0
 11 30  1  0
 13 31  1  0
 14 32  1  0
 14 33  1  0
 18 34  1  0
 19 35  1  0
 20 36  1  0
 21 37  1  0
 22 38  1  0
M  END
>  <Energy>  (887) 
392.34405153656542

>  <compound_id>  (887) 
52474

>  <target_id>  (887) 
1

>  <reference_id>  (887) 
40

>  <inspiration_ids>  (887) 
[40, 76]

>  <energy_score>  (887) 
348.03863673282035

>  <distance_score>  (887) 
5.394244465949416

>  <path>  (887) 
/opt/xchem-fragalysis-2/maxwin/BulkDock/SCRATCH/511024/C52474-P40/C52474-P40.minimised.mol

>  <scratch_subdir>  (887) 
/opt/xchem-fragalysis-2/maxwin/BulkDock/SCRATCH/511024/C52474-P40

>  <fragmenstein_runtime>  (887) 
13.108750343322754

>  <fragmenstein_outcome>  (887) 
too moved

>  <fragmenstein_mode>  (887) 
expansion

>  <fragmenstein_error>  (887) 


$$$$
C52474-P76
     RDKit          3D

 38 40  0  0  0  0  0  0  0  0999 V2000
    5.9367   -6.6527   22.8915 O   0  0  0  0  0  0  0  0  0  0  0  0
    4.7814   -6.2508   22.7707 C   0  0  0  0  0  0  0  0  0  0  0  0
    3.3346   -6.7008   24.2312 C   0  0  0  0  0  0  0  0  0  0  0  0
    2.2541   -5.2391   25.1679 C   0  0  0  0  0  0  0  0  0  0  0  0
    2.7561   -3.5645   25.2098 C   0  0  0  0  0  0  0  0  0  0  0  0
    2.3538   -2.9645   26.4746 N   0  0  0  0  0  0  0  0  0  0  0  0
    1.4337   -3.7049   27.2475 C   0  0  0  0  0  0  0  0  0  0  0  0
    0.8088   -3.3351   28.4483 C   0  0  0  0  0  0  0  0  0  0  0  0
   -0.1431   -4.1968   29.0080 C   0  0  0  0  0  0  0  0  0  0  0  0
   -0.5473   -5.3624   28.3566 C   0  0  0  0  0  0  0  0  0  0  0  0
   -0.0038   -5.7254   27.1260 C   0  0  0  0  0  0  0  0  0  0  0  0
    1.1281   -4.9615   26.6154 C   0  0  0  0  0  0  0  0  0  0  0  0
    3.8436   -4.8794   21.2622 N   0  0  0  0  0  0  0  0  0  0  0  0
    4.9073   -3.8661   19.8141 C   0  0  0  0  0  0  0  0  0  0  0  0
    4.9162   -2.2777   18.4801 C   0  0  0  0  0  0  0  0  0  0  0  0
    5.5693   -1.2860   17.7058 C   0  0  0  0  0  0  0  0  0  0  0  0
    6.8114   -0.6228   16.4186 C   0  0  0  0  0  0  0  0  0  0  0  0
    7.0339    0.6995   15.7099 C   0  0  0  0  0  0  0  0  0  0  0  0
    7.8718    1.0350   14.6210 C   0  0  0  0  0  0  0  0  0  0  0  0
    8.7107    0.0706   14.1911 C   0  0  0  0  0  0  0  0  0  0  0  0
    8.5338   -1.2028   14.7315 C   0  0  0  0  0  0  0  0  0  0  0  0
    7.4850   -1.5313   15.5671 C   0  0  0  0  0  0  0  0  0  0  0  0
    3.8654   -7.3593   24.8668 H   0  0  0  0  0  0  0  0  0  0  0  0
    2.5891   -7.4483   23.9098 H   0  0  0  0  0  0  0  0  0  0  0  0
    3.4974   -3.0330   24.6261 H   0  0  0  0  0  0  0  0  0  0  0  0
    2.6313   -2.0219   26.6962 H   0  0  0  0  0  0  0  0  0  0  0  0
    1.0581   -2.3997   28.9404 H   0  0  0  0  0  0  0  0  0  0  0  0
   -0.5899   -3.9351   29.9646 H   0  0  0  0  0  0  0  0  0  0  0  0
   -1.2620   -6.0327   28.8172 H   0  0  0  0  0  0  0  0  0  0  0  0
   -0.3201   -6.6355   26.6266 H   0  0  0  0  0  0  0  0  0  0  0  0
    2.8482   -4.6918   21.5211 H   0  0  0  0  0  0  0  0  0  0  0  0
    5.4073   -3.1522   20.5031 H   0  0  0  0  0  0  0  0  0  0  0  0
    5.6144   -4.5797   19.3639 H   0  0  0  0  0  0  0  0  0  0  0  0
    6.4797    1.6279   15.8713 H   0  0  0  0  0  0  0  0  0  0  0  0
    7.9192    2.0495   14.2373 H   0  0  0  0  0  0  0  0  0  0  0  0
    9.5372    0.3158   13.5319 H   0  0  0  0  0  0  0  0  0  0  0  0
    9.2465   -2.0107   14.5748 H   0  0  0  0  0  0  0  0  0  0  0  0
    7.3243   -2.5919   15.5082 H   0  0  0  0  0  0  0  0  0  0  0  0
  1  2  2  0
  2  3  1  0
  3  4  1  0
  4  5  2  0
  5  6  1  0
  6  7  1  0
  7  8  2  0
  8  9  1  0
  9 10  2  0
 10 11  1  0
 11 12  2  0
  2 13  1  0
 13 14  1  0
 14 15  1  0
 15 16  3  0
 16 17  1  0
 17 18  2  0
 18 19  1  0
 19 20  2  0
 20 21  1  0
 21 22  2  0
 12  4  1  0
 22 17  1  0
 12  7  1  0
  3 23  1  0
  3 24  1  0
  5 25  1  0
  6 26  1  0
  8 27  1  0
  9 28  1  0
 10 29  1  0
 11 30  1  0
 13 31  1  0
 14 32  1  0
 14 33  1  0
 18 34  1  0
 19 35  1  0
 20 36  1  0
 21 37  1  0
 22 38  1  0
M  END
>  <Energy>  (888) 
987.76441103790364

>  <compound_id>  (888) 
52474

>  <target_id>  (888) 
1

>  <reference_id>  (888) 
76

>  <inspiration_ids>  (888) 
[40, 76]

>  <energy_score>  (888) 
943.4589962341611

>  <distance_score>  (888) 
4.782468340238574

>  <path>  (888) 
/opt/xchem-fragalysis-2/maxwin/BulkDock/SCRATCH/511024/C52474-P76/C52474-P76.minimised.mol

>  <scratch_subdir>  (888) 
/opt/xchem-fragalysis-2/maxwin/BulkDock/SCRATCH/511024/C52474-P76

>  <fragmenstein_runtime>  (888) 
7.2395970821380615

>  <fragmenstein_outcome>  (888) 
too moved

>  <fragmenstein_mode>  (888) 
expansion

>  <fragmenstein_error>  (888) 


$$$$
C52475-P40
     RDKit          3D

 41 43  0  0  0  0  0  0  0  0999 V2000
    5.5414   -3.5780   24.7554 C   0  0  0  0  0  0  0  0  0  0  0  0
    5.1037   -2.1481   24.3098 C   0  0  0  0  0  0  0  0  0  0  0  0
    4.6609   -1.6673   25.5177 N   0  0  0  0  0  0  0  0  0  0  0  0
    4.3993   -0.3723   25.6066 C   0  0  0  0  0  0  0  0  0  0  0  0
    3.9724    0.3018   26.7679 C   0  0  0  0  0  0  0  0  0  0  0  0
    3.6311    1.6351   26.6732 C   0  0  0  0  0  0  0  0  0  0  0  0
    3.7107    2.2471   25.4430 C   0  0  0  0  0  0  0  0  0  0  0  0
    4.1526    1.5266   24.3139 C   0  0  0  0  0  0  0  0  0  0  0  0
    4.5823    0.1342   24.3299 C   0  0  0  0  0  0  0  0  0  0  0  0
    4.9914   -1.1129   23.1562 C   0  0  0  0  0  0  0  0  0  0  0  0
    5.5262   -1.0481   21.1944 C   0  0  0  0  0  0  0  0  0  0  0  0
    6.8401   -0.1152   19.8996 C   0  0  0  0  0  0  0  0  0  0  0  0
    8.3986   -0.3944   19.9304 O   0  0  0  0  0  0  0  0  0  0  0  0
    6.7521    0.5440   19.0268 N   0  0  0  0  0  0  0  0  0  0  0  0
    7.5962    1.3257   17.9440 C   0  0  0  0  0  0  0  0  0  0  0  0
    8.3550    0.5994   16.8941 C   0  0  0  0  0  0  0  0  0  0  0  0
    9.1679    0.1878   16.0985 C   0  0  0  0  0  0  0  0  0  0  0  0
   10.3316   -0.2120   15.3390 C   0  0  0  0  0  0  0  0  0  0  0  0
   11.3118    0.7336   15.0194 C   0  0  0  0  0  0  0  0  0  0  0  0
   12.5422    0.3325   14.4836 C   0  0  0  0  0  0  0  0  0  0  0  0
   12.8000   -1.0180   14.2553 C   0  0  0  0  0  0  0  0  0  0  0  0
   11.8127   -1.9610   14.5210 C   0  0  0  0  0  0  0  0  0  0  0  0
   10.5801   -1.5520   15.0404 C   0  0  0  0  0  0  0  0  0  0  0  0
    4.6566   -4.1289   25.1159 H   0  0  0  0  0  0  0  0  0  0  0  0
    6.1777   -3.5258   25.6531 H   0  0  0  0  0  0  0  0  0  0  0  0
    6.0330   -4.2204   24.0289 H   0  0  0  0  0  0  0  0  0  0  0  0
    4.6171   -2.2394   26.3462 H   0  0  0  0  0  0  0  0  0  0  0  0
    3.8799   -0.2201   27.7154 H   0  0  0  0  0  0  0  0  0  0  0  0
    3.2817    2.1812   27.5431 H   0  0  0  0  0  0  0  0  0  0  0  0
    3.4062    3.2832   25.3249 H   0  0  0  0  0  0  0  0  0  0  0  0
    4.0914    2.0490   23.3647 H   0  0  0  0  0  0  0  0  0  0  0  0
    5.3529   -2.1855   21.0249 H   0  0  0  0  0  0  0  0  0  0  0  0
    6.2833   -1.7977   20.7553 H   0  0  0  0  0  0  0  0  0  0  0  0
    6.2618    1.0543   18.3432 H   0  0  0  0  0  0  0  0  0  0  0  0
    8.3494    1.8383   18.5609 H   0  0  0  0  0  0  0  0  0  0  0  0
    7.0342    2.1574   17.4671 H   0  0  0  0  0  0  0  0  0  0  0  0
   11.1416    1.7873   15.2279 H   0  0  0  0  0  0  0  0  0  0  0  0
   13.3043    1.0748   14.2630 H   0  0  0  0  0  0  0  0  0  0  0  0
   13.7576   -1.3320   13.8495 H   0  0  0  0  0  0  0  0  0  0  0  0
   11.9877   -3.0129   14.3102 H   0  0  0  0  0  0  0  0  0  0  0  0
    9.8040   -2.2950   15.1604 H   0  0  0  0  0  0  0  0  0  0  0  0
  1  2  1  0
  2  3  1  0
  3  4  1  0
  4  5  2  0
  5  6  1  0
  6  7  2  0
  7  8  1  0
  8  9  2  0
  9 10  1  0
 10 11  1  0
 11 12  1  0
 12 13  2  0
 12 14  1  0
 14 15  1  0
 15 16  1  0
 16 17  3  0
 17 18  1  0
 18 19  2  0
 19 20  1  0
 20 21  2  0
 21 22  1  0
 22 23  2  0
 10  2  2  0
 23 18  1  0
  9  4  1  0
  1 24  1  0
  1 25  1  0
  1 26  1  0
  3 27  1  0
  5 28  1  0
  6 29  1  0
  7 30  1  0
  8 31  1  0
 11 32  1  0
 11 33  1  0
 14 34  1  0
 15 35  1  0
 15 36  1  0
 19 37  1  0
 20 38  1  0
 21 39  1  0
 22 40  1  0
 23 41  1  0
M  END
>  <Energy>  (889) 
559.0594521122473

>  <compound_id>  (889) 
52475

>  <target_id>  (889) 
1

>  <reference_id>  (889) 
40

>  <inspiration_ids>  (889) 
[40, 76]

>  <energy_score>  (889) 
503.46594501296136

>  <distance_score>  (889) 
6.991473120809078

>  <path>  (889) 
/opt/xchem-fragalysis-2/maxwin/BulkDock/SCRATCH/511024/C52475-P40/C52475-P40.minimised.mol

>  <scratch_subdir>  (889) 
/opt/xchem-fragalysis-2/maxwin/BulkDock/SCRATCH/511024/C52475-P40

>  <fragmenstein_runtime>  (889) 
9.184614181518555

>  <fragmenstein_outcome>  (889) 
too moved

>  <fragmenstein_mode>  (889) 
expansion

>  <fragmenstein_error>  (889) 


$$$$
C52475-P76
     RDKit          3D

 41 43  0  0  0  0  0  0  0  0999 V2000
    1.3784    0.0079   27.3788 C   0  0  0  0  0  0  0  0  0  0  0  0
    2.3077   -1.1244   27.5902 C   0  0  0  0  0  0  0  0  0  0  0  0
    2.0748   -1.9559   28.6490 N   0  0  0  0  0  0  0  0  0  0  0  0
    3.2619   -2.4874   29.0532 C   0  0  0  0  0  0  0  0  0  0  0  0
    3.5552   -3.1809   30.2352 C   0  0  0  0  0  0  0  0  0  0  0  0
    4.8825   -3.5228   30.4653 C   0  0  0  0  0  0  0  0  0  0  0  0
    5.8637   -3.1608   29.5505 C   0  0  0  0  0  0  0  0  0  0  0  0
    5.5360   -2.4769   28.3660 C   0  0  0  0  0  0  0  0  0  0  0  0
    4.1968   -2.1618   28.0577 C   0  0  0  0  0  0  0  0  0  0  0  0
    3.4838   -1.5493   26.9487 C   0  0  0  0  0  0  0  0  0  0  0  0
    3.8154   -1.1618   25.4752 C   0  0  0  0  0  0  0  0  0  0  0  0
    5.0401   -1.6278   24.5865 C   0  0  0  0  0  0  0  0  0  0  0  0
    6.0935   -1.8475   25.1219 O   0  0  0  0  0  0  0  0  0  0  0  0
    4.6692   -1.6216   23.1247 N   0  0  0  0  0  0  0  0  0  0  0  0
    5.6498   -1.8633   21.6771 C   0  0  0  0  0  0  0  0  0  0  0  0
    6.8066   -0.9023   20.4568 C   0  0  0  0  0  0  0  0  0  0  0  0
    6.9349   -0.5785   19.2151 C   0  0  0  0  0  0  0  0  0  0  0  0
    6.1498   -0.7798   17.5907 C   0  0  0  0  0  0  0  0  0  0  0  0
    6.9437   -0.4290   16.4047 C   0  0  0  0  0  0  0  0  0  0  0  0
    6.5723   -0.4728   15.0548 C   0  0  0  0  0  0  0  0  0  0  0  0
    5.2567   -0.7897   14.7729 C   0  0  0  0  0  0  0  0  0  0  0  0
    4.3533   -1.0173   15.8213 C   0  0  0  0  0  0  0  0  0  0  0  0
    4.7693   -1.0257   17.1906 C   0  0  0  0  0  0  0  0  0  0  0  0
    1.8056    0.7536   26.7048 H   0  0  0  0  0  0  0  0  0  0  0  0
    0.4040   -0.3329   27.0277 H   0  0  0  0  0  0  0  0  0  0  0  0
    1.2060    0.5284   28.3291 H   0  0  0  0  0  0  0  0  0  0  0  0
    1.2425   -1.9421   29.2198 H   0  0  0  0  0  0  0  0  0  0  0  0
    2.7844   -3.4130   30.9628 H   0  0  0  0  0  0  0  0  0  0  0  0
    5.1571   -4.0395   31.3804 H   0  0  0  0  0  0  0  0  0  0  0  0
    6.9070   -3.3942   29.7462 H   0  0  0  0  0  0  0  0  0  0  0  0
    6.3274   -2.1875   27.6781 H   0  0  0  0  0  0  0  0  0  0  0  0
    3.8490   -0.0645   25.4505 H   0  0  0  0  0  0  0  0  0  0  0  0
    2.9281   -1.4765   24.9287 H   0  0  0  0  0  0  0  0  0  0  0  0
    3.7170   -1.3139   23.0274 H   0  0  0  0  0  0  0  0  0  0  0  0
    6.0318   -2.7751   22.1205 H   0  0  0  0  0  0  0  0  0  0  0  0
    5.2344   -2.5690   20.9411 H   0  0  0  0  0  0  0  0  0  0  0  0
    7.6668    0.2849   16.7314 H   0  0  0  0  0  0  0  0  0  0  0  0
    7.2435   -0.1450   14.2669 H   0  0  0  0  0  0  0  0  0  0  0  0
    4.9060   -0.8014   13.7440 H   0  0  0  0  0  0  0  0  0  0  0  0
    3.3132   -1.2369   15.5888 H   0  0  0  0  0  0  0  0  0  0  0  0
    3.9900   -1.3211   17.8651 H   0  0  0  0  0  0  0  0  0  0  0  0
  1  2  1  0
  2  3  1  0
  3  4  1  0
  4  5  2  0
  5  6  1  0
  6  7  2  0
  7  8  1  0
  8  9  2  0
  9 10  1  0
 10 11  1  0
 11 12  1  0
 12 13  2  0
 12 14  1  0
 14 15  1  0
 15 16  1  0
 16 17  3  0
 17 18  1  0
 18 19  2  0
 19 20  1  0
 20 21  2  0
 21 22  1  0
 22 23  2  0
 10  2  2  0
 23 18  1  0
  9  4  1  0
  1 24  1  0
  1 25  1  0
  1 26  1  0
  3 27  1  0
  5 28  1  0
  6 29  1  0
  7 30  1  0
  8 31  1  0
 11 32  1  0
 11 33  1  0
 14 34  1  0
 15 35  1  0
 15 36  1  0
 19 37  1  0
 20 38  1  0
 21 39  1  0
 22 40  1  0
 23 41  1  0
M  END
>  <Energy>  (890) 
275.65025755737582

>  <compound_id>  (890) 
52475

>  <target_id>  (890) 
1

>  <reference_id>  (890) 
76

>  <inspiration_ids>  (890) 
[40, 76]

>  <energy_score>  (890) 
220.05675045808943

>  <distance_score>  (890) 
6.766545492967777

>  <path>  (890) 
/opt/xchem-fragalysis-2/maxwin/BulkDock/SCRATCH/511024/C52475-P76/C52475-P76.minimised.mol

>  <scratch_subdir>  (890) 
/opt/xchem-fragalysis-2/maxwin/BulkDock/SCRATCH/511024/C52475-P76

>  <fragmenstein_runtime>  (890) 
7.420470476150513

>  <fragmenstein_outcome>  (890) 
too moved

>  <fragmenstein_mode>  (890) 
expansion

>  <fragmenstein_error>  (890) 


$$$$
C52476-P40
     RDKit          3D

 38 40  0  0  0  0  0  0  0  0999 V2000
    4.5505   -1.2004   24.1398 O   0  0  0  0  0  0  0  0  0  0  0  0
    5.2086   -2.2067   24.0668 C   0  0  0  0  0  0  0  0  0  0  0  0
    5.4473   -3.0634   25.3879 C   0  0  0  0  0  0  0  0  0  0  0  0
    4.3256   -3.8546   26.0621 C   0  0  0  0  0  0  0  0  0  0  0  0
    4.1838   -5.2240   25.8833 C   0  0  0  0  0  0  0  0  0  0  0  0
    3.2383   -5.7034   26.7329 N   0  0  0  0  0  0  0  0  0  0  0  0
    2.7500   -4.6918   27.5176 C   0  0  0  0  0  0  0  0  0  0  0  0
    1.7930   -4.7503   28.5451 C   0  0  0  0  0  0  0  0  0  0  0  0
    1.4745   -3.5740   29.2226 C   0  0  0  0  0  0  0  0  0  0  0  0
    2.1104   -2.3841   28.8961 C   0  0  0  0  0  0  0  0  0  0  0  0
    3.0715   -2.3550   27.8784 C   0  0  0  0  0  0  0  0  0  0  0  0
    3.8728   -0.8973   27.4893 Cl  0  0  0  0  0  0  0  0  0  0  0  0
    3.4136   -3.5093   27.1374 C   0  0  0  0  0  0  0  0  0  0  0  0
    5.9286   -2.8752   22.8162 N   0  0  0  0  0  0  0  0  0  0  0  0
    5.9309   -2.3884   20.9763 C   0  0  0  0  0  0  0  0  0  0  0  0
    6.9238   -0.8824   20.2645 C   0  0  0  0  0  0  0  0  0  0  0  0
    7.4789   -0.0682   19.4851 C   0  0  0  0  0  0  0  0  0  0  0  0
    8.1142    0.9029   18.5394 C   0  0  0  0  0  0  0  0  0  0  0  0
    8.4831    0.6335   17.1934 C   0  0  0  0  0  0  0  0  0  0  0  0
    9.0957    1.5792   16.3625 C   0  0  0  0  0  0  0  0  0  0  0  0
    9.3099    2.8580   16.8344 C   0  0  0  0  0  0  0  0  0  0  0  0
    8.9218    3.1769   18.1303 C   0  0  0  0  0  0  0  0  0  0  0  0
    8.3383    2.2111   18.9627 C   0  0  0  0  0  0  0  0  0  0  0  0
    5.9328   -2.4040   26.1157 H   0  0  0  0  0  0  0  0  0  0  0  0
    6.1539   -3.8648   25.1884 H   0  0  0  0  0  0  0  0  0  0  0  0
    4.7273   -5.9030   25.2354 H   0  0  0  0  0  0  0  0  0  0  0  0
    2.9914   -6.6782   26.8124 H   0  0  0  0  0  0  0  0  0  0  0  0
    1.3083   -5.6819   28.8137 H   0  0  0  0  0  0  0  0  0  0  0  0
    0.7267   -3.5823   30.0118 H   0  0  0  0  0  0  0  0  0  0  0  0
    1.8595   -1.4701   29.4284 H   0  0  0  0  0  0  0  0  0  0  0  0
    6.4707   -3.6815   23.1268 H   0  0  0  0  0  0  0  0  0  0  0  0
    5.3305   -2.9570   20.2769 H   0  0  0  0  0  0  0  0  0  0  0  0
    6.8570   -2.9872   21.0944 H   0  0  0  0  0  0  0  0  0  0  0  0
    8.2472   -0.2792   16.6672 H   0  0  0  0  0  0  0  0  0  0  0  0
    9.3473    1.3246   15.3361 H   0  0  0  0  0  0  0  0  0  0  0  0
    9.7677    3.6130   16.2030 H   0  0  0  0  0  0  0  0  0  0  0  0
    9.0836    4.1835   18.5078 H   0  0  0  0  0  0  0  0  0  0  0  0
    8.0286    2.5194   19.9468 H   0  0  0  0  0  0  0  0  0  0  0  0
  1  2  2  0
  2  3  1  0
  3  4  1  0
  4  5  2  0
  5  6  1  0
  6  7  1  0
  7  8  2  0
  8  9  1  0
  9 10  2  0
 10 11  1  0
 11 12  1  0
 11 13  2  0
  2 14  1  0
 14 15  1  0
 15 16  1  0
 16 17  3  0
 17 18  1  0
 18 19  2  0
 19 20  1  0
 20 21  2  0
 21 22  1  0
 22 23  2  0
 13  4  1  0
 23 18  1  0
 13  7  1  0
  3 24  1  0
  3 25  1  0
  5 26  1  0
  6 27  1  0
  8 28  1  0
  9 29  1  0
 10 30  1  0
 14 31  1  0
 15 32  1  0
 15 33  1  0
 19 34  1  0
 20 35  1  0
 21 36  1  0
 22 37  1  0
 23 38  1  0
M  END
>  <Energy>  (891) 
195.05627861432478

>  <compound_id>  (891) 
52476

>  <target_id>  (891) 
1

>  <reference_id>  (891) 
40

>  <inspiration_ids>  (891) 
[40, 76]

>  <energy_score>  (891) 
151.69566016293322

>  <distance_score>  (891) 
5.543626566988368

>  <path>  (891) 
/opt/xchem-fragalysis-2/maxwin/BulkDock/SCRATCH/511024/C52476-P40/C52476-P40.minimised.mol

>  <scratch_subdir>  (891) 
/opt/xchem-fragalysis-2/maxwin/BulkDock/SCRATCH/511024/C52476-P40

>  <fragmenstein_runtime>  (891) 
9.168610572814941

>  <fragmenstein_outcome>  (891) 
too moved

>  <fragmenstein_mode>  (891) 
expansion

>  <fragmenstein_error>  (891) 


$$$$
C52476-P76
     RDKit          3D

 38 40  0  0  0  0  0  0  0  0999 V2000
    8.2035   -4.0802   20.6270 O   0  0  0  0  0  0  0  0  0  0  0  0
    7.4997   -3.2499   21.1825 C   0  0  0  0  0  0  0  0  0  0  0  0
    6.7011   -3.5126   23.0115 C   0  0  0  0  0  0  0  0  0  0  0  0
    5.7067   -2.2776   24.1687 C   0  0  0  0  0  0  0  0  0  0  0  0
    4.3153   -2.0303   24.1442 C   0  0  0  0  0  0  0  0  0  0  0  0
    3.8039   -1.4174   25.2533 N   0  0  0  0  0  0  0  0  0  0  0  0
    4.7427   -1.1877   26.2057 C   0  0  0  0  0  0  0  0  0  0  0  0
    4.5282   -0.7258   27.5153 C   0  0  0  0  0  0  0  0  0  0  0  0
    5.6114   -0.6580   28.3788 C   0  0  0  0  0  0  0  0  0  0  0  0
    6.8742   -1.0046   27.9242 C   0  0  0  0  0  0  0  0  0  0  0  0
    7.0744   -1.4466   26.6022 C   0  0  0  0  0  0  0  0  0  0  0  0
    8.6637   -1.8128   26.1163 Cl  0  0  0  0  0  0  0  0  0  0  0  0
    5.9956   -1.5873   25.6729 C   0  0  0  0  0  0  0  0  0  0  0  0
    7.0942   -1.4527   20.5858 N   0  0  0  0  0  0  0  0  0  0  0  0
    7.6765   -0.5573   19.2900 C   0  0  0  0  0  0  0  0  0  0  0  0
    7.4371   -0.1494   17.8341 C   0  0  0  0  0  0  0  0  0  0  0  0
    7.3012   -0.0012   16.6113 C   0  0  0  0  0  0  0  0  0  0  0  0
    7.3437    0.6744   15.2891 C   0  0  0  0  0  0  0  0  0  0  0  0
    8.1325    0.0767   14.3237 C   0  0  0  0  0  0  0  0  0  0  0  0
    8.9850    0.8902   13.5678 C   0  0  0  0  0  0  0  0  0  0  0  0
    8.8549    2.2696   13.5341 C   0  0  0  0  0  0  0  0  0  0  0  0
    7.9066    2.8635   14.3388 C   0  0  0  0  0  0  0  0  0  0  0  0
    7.1877    2.0741   15.2376 C   0  0  0  0  0  0  0  0  0  0  0  0
    6.6192   -4.5839   23.2772 H   0  0  0  0  0  0  0  0  0  0  0  0
    7.5159   -3.6391   23.7086 H   0  0  0  0  0  0  0  0  0  0  0  0
    3.5381   -2.3479   23.4768 H   0  0  0  0  0  0  0  0  0  0  0  0
    2.8126   -1.2684   25.3721 H   0  0  0  0  0  0  0  0  0  0  0  0
    3.5313   -0.4638   27.8560 H   0  0  0  0  0  0  0  0  0  0  0  0
    5.4723   -0.3225   29.4022 H   0  0  0  0  0  0  0  0  0  0  0  0
    7.7228   -0.9306   28.5992 H   0  0  0  0  0  0  0  0  0  0  0  0
    6.4077   -1.0150   21.2044 H   0  0  0  0  0  0  0  0  0  0  0  0
    7.3628    0.4058   19.7166 H   0  0  0  0  0  0  0  0  0  0  0  0
    8.7350   -0.4494   19.4856 H   0  0  0  0  0  0  0  0  0  0  0  0
    8.3111   -0.9930   14.3833 H   0  0  0  0  0  0  0  0  0  0  0  0
    9.8513    0.4556   13.0763 H   0  0  0  0  0  0  0  0  0  0  0  0
    9.5239    2.8711   12.9260 H   0  0  0  0  0  0  0  0  0  0  0  0
    7.7983    3.9442   14.3539 H   0  0  0  0  0  0  0  0  0  0  0  0
    6.6019    2.6038   15.9830 H   0  0  0  0  0  0  0  0  0  0  0  0
  1  2  2  0
  2  3  1  0
  3  4  1  0
  4  5  2  0
  5  6  1  0
  6  7  1  0
  7  8  2  0
  8  9  1  0
  9 10  2  0
 10 11  1  0
 11 12  1  0
 11 13  2  0
  2 14  1  0
 14 15  1  0
 15 16  1  0
 16 17  3  0
 17 18  1  0
 18 19  2  0
 19 20  1  0
 20 21  2  0
 21 22  1  0
 22 23  2  0
 13  4  1  0
 23 18  1  0
 13  7  1  0
  3 24  1  0
  3 25  1  0
  5 26  1  0
  6 27  1  0
  8 28  1  0
  9 29  1  0
 10 30  1  0
 14 31  1  0
 15 32  1  0
 15 33  1  0
 19 34  1  0
 20 35  1  0
 21 36  1  0
 22 37  1  0
 23 38  1  0
M  END
>  <Energy>  (892) 
348.75948625566326

>  <compound_id>  (892) 
52476

>  <target_id>  (892) 
1

>  <reference_id>  (892) 
76

>  <inspiration_ids>  (892) 
[40, 76]

>  <energy_score>  (892) 
305.39886780426843

>  <distance_score>  (892) 
7.35393498445237

>  <path>  (892) 
/opt/xchem-fragalysis-2/maxwin/BulkDock/SCRATCH/511024/C52476-P76/C52476-P76.minimised.mol

>  <scratch_subdir>  (892) 
/opt/xchem-fragalysis-2/maxwin/BulkDock/SCRATCH/511024/C52476-P76

>  <fragmenstein_runtime>  (892) 
8.738476276397705

>  <fragmenstein_outcome>  (892) 
too moved

>  <fragmenstein_mode>  (892) 
expansion

>  <fragmenstein_error>  (892) 


$$$$
C67660-P40
     RDKit          3D

 47 49  0  0  0  0  0  0  0  0999 V2000
    6.1950   -2.0151   14.4437 C   0  0  0  0  0  0  0  0  0  0  0  0
    7.6259   -2.3668   14.4586 N   0  0  0  0  0  0  0  0  0  0  0  0
    8.3463   -1.0475   14.7910 C   0  0  0  0  0  0  0  0  0  0  0  0
    7.9083    0.2163   14.0270 C   0  0  0  0  0  0  0  0  0  0  0  0
    6.9606    0.3916   13.2778 O   0  0  0  0  0  0  0  0  0  0  0  0
    8.6989    1.2724   14.3479 O   0  0  0  0  0  0  0  0  0  0  0  0
    8.2398   -3.6804   15.5174 C   0  0  0  0  0  0  0  0  0  0  0  0
   10.0467   -3.5308   15.1267 C   0  0  0  0  0  0  0  0  0  0  0  0
   10.7579   -4.2202   14.4081 O   0  0  0  0  0  0  0  0  0  0  0  0
   10.6783   -2.4542   15.6913 O   0  0  0  0  0  0  0  0  0  0  0  0
    7.1488   -5.3844   16.0543 C   0  0  0  0  0  0  0  0  0  0  0  0
    5.7331   -5.8176   16.3157 C   0  0  0  0  0  0  0  0  0  0  0  0
    5.1407   -5.3330   17.5533 N   0  0  0  0  0  0  0  0  0  0  0  0
    6.2969   -5.1991   18.3821 C   0  0  0  0  0  0  0  0  0  0  0  0
    6.7507   -5.3666   19.6979 C   0  0  0  0  0  0  0  0  0  0  0  0
    6.8512   -6.9318   20.5882 C   0  0  0  0  0  0  0  0  0  0  0  0
    6.0683   -6.9193   22.3278 N   0  0  0  0  0  0  0  0  0  0  0  0
    6.7110   -7.0087   23.7852 C   0  0  0  0  0  0  0  0  0  0  0  0
    7.8633   -7.1883   24.1394 O   0  0  0  0  0  0  0  0  0  0  0  0
    5.6953   -6.7229   24.8661 C   0  0  0  0  0  0  0  0  0  0  0  0
    4.5768   -7.5321   25.0705 C   0  0  0  0  0  0  0  0  0  0  0  0
    3.6829   -7.2573   26.1113 C   0  0  0  0  0  0  0  0  0  0  0  0
    3.8717   -6.1590   26.9451 C   0  0  0  0  0  0  0  0  0  0  0  0
    4.9860   -5.3494   26.7532 C   0  0  0  0  0  0  0  0  0  0  0  0
    5.9007   -5.6419   25.7322 C   0  0  0  0  0  0  0  0  0  0  0  0
    6.7013   -7.6860   19.3030 C   0  0  0  0  0  0  0  0  0  0  0  0
    6.1376   -7.3806   18.0628 C   0  0  0  0  0  0  0  0  0  0  0  0
    6.7919   -6.1441   17.5662 C   0  0  0  0  0  0  0  0  0  0  0  0
    5.5285   -2.7609   14.8501 H   0  0  0  0  0  0  0  0  0  0  0  0
    5.9575   -1.1043   15.0093 H   0  0  0  0  0  0  0  0  0  0  0  0
    5.8662   -1.8177   13.4182 H   0  0  0  0  0  0  0  0  0  0  0  0
    8.2081   -0.8005   15.8473 H   0  0  0  0  0  0  0  0  0  0  0  0
    9.4074   -1.1325   14.5917 H   0  0  0  0  0  0  0  0  0  0  0  0
    8.2855    2.0113   13.8561 H   0  0  0  0  0  0  0  0  0  0  0  0
    8.0057   -2.8293   16.0855 H   0  0  0  0  0  0  0  0  0  0  0  0
   11.5833   -2.5666   15.3225 H   0  0  0  0  0  0  0  0  0  0  0  0
    5.1352   -6.5650   15.7748 H   0  0  0  0  0  0  0  0  0  0  0  0
    4.2066   -5.5325   17.8905 H   0  0  0  0  0  0  0  0  0  0  0  0
    7.1810   -4.4956   20.1819 H   0  0  0  0  0  0  0  0  0  0  0  0
    5.0935   -6.8498   22.4063 H   0  0  0  0  0  0  0  0  0  0  0  0
    4.4079   -8.4061   24.4456 H   0  0  0  0  0  0  0  0  0  0  0  0
    2.8659   -7.9478   26.2691 H   0  0  0  0  0  0  0  0  0  0  0  0
    3.1791   -5.9457   27.7525 H   0  0  0  0  0  0  0  0  0  0  0  0
    5.1684   -4.4950   27.4009 H   0  0  0  0  0  0  0  0  0  0  0  0
    6.7811   -5.0148   25.6087 H   0  0  0  0  0  0  0  0  0  0  0  0
    7.2934   -8.5889   19.0455 H   0  0  0  0  0  0  0  0  0  0  0  0
    5.7908   -8.1550   17.3731 H   0  0  0  0  0  0  0  0  0  0  0  0
  1  2  1  0
  2  3  1  0
  3  4  1  0
  4  5  2  0
  4  6  1  0
  2  7  1  0
  7  8  1  0
  8  9  2  0
  8 10  1  0
  7 11  1  0
 11 12  2  0
 12 13  1  0
 13 14  1  0
 14 15  2  0
 15 16  1  0
 16 17  1  0
 17 18  1  0
 18 19  2  0
 18 20  1  0
 20 21  2  0
 21 22  1  0
 22 23  2  0
 23 24  1  0
 24 25  2  0
 16 26  2  0
 26 27  1  0
 27 28  2  0
 28 11  1  0
 28 14  1  0
 25 20  1  0
  1 29  1  0
  1 30  1  0
  1 31  1  0
  3 32  1  0
  3 33  1  0
  6 34  1  0
  7 35  1  0
 10 36  1  0
 12 37  1  0
 13 38  1  0
 15 39  1  0
 17 40  1  0
 21 41  1  0
 22 42  1  0
 23 43  1  0
 24 44  1  0
 25 45  1  0
 26 46  1  0
 27 47  1  0
M  END
>  <Energy>  (893) 
809.77035870264672

>  <compound_id>  (893) 
67660

>  <target_id>  (893) 
1

>  <reference_id>  (893) 
40

>  <inspiration_ids>  (893) 
[40, 76]

>  <energy_score>  (893) 
626.9687048702783

>  <distance_score>  (893) 
7.885877999393127

>  <path>  (893) 
/opt/xchem-fragalysis-2/maxwin/BulkDock/SCRATCH/511024/C67660-P40/C67660-P40.minimised.mol

>  <scratch_subdir>  (893) 
/opt/xchem-fragalysis-2/maxwin/BulkDock/SCRATCH/511024/C67660-P40

>  <fragmenstein_runtime>  (893) 
13.655640363693237

>  <fragmenstein_outcome>  (893) 
too moved

>  <fragmenstein_mode>  (893) 
expansion

>  <fragmenstein_error>  (893) 


$$$$
C67660-P76
     RDKit          3D

 47 49  0  0  0  0  0  0  0  0999 V2000
   13.7204   -3.3900   16.8107 C   0  0  0  0  0  0  0  0  0  0  0  0
   14.6113   -2.7977   17.8029 N   0  0  0  0  0  0  0  0  0  0  0  0
   15.6889   -1.9734   17.2134 C   0  0  0  0  0  0  0  0  0  0  0  0
   16.5529   -2.6486   16.1518 C   0  0  0  0  0  0  0  0  0  0  0  0
   17.7159   -2.9979   16.2891 O   0  0  0  0  0  0  0  0  0  0  0  0
   15.9114   -2.8442   14.9818 O   0  0  0  0  0  0  0  0  0  0  0  0
   15.0209   -3.8047   18.8314 C   0  0  0  0  0  0  0  0  0  0  0  0
   16.3504   -4.4971   18.5353 C   0  0  0  0  0  0  0  0  0  0  0  0
   16.4936   -5.4107   17.7306 O   0  0  0  0  0  0  0  0  0  0  0  0
   17.4286   -3.9744   19.1526 O   0  0  0  0  0  0  0  0  0  0  0  0
   14.8942   -3.2386   20.2285 C   0  0  0  0  0  0  0  0  0  0  0  0
   15.1974   -1.9624   20.6704 C   0  0  0  0  0  0  0  0  0  0  0  0
   14.8347   -1.8552   21.9877 N   0  0  0  0  0  0  0  0  0  0  0  0
   14.2720   -3.0293   22.4318 C   0  0  0  0  0  0  0  0  0  0  0  0
   13.6372   -3.3248   23.6637 C   0  0  0  0  0  0  0  0  0  0  0  0
   13.0714   -4.5941   23.8532 C   0  0  0  0  0  0  0  0  0  0  0  0
   12.2414   -4.8004   24.9828 N   0  0  0  0  0  0  0  0  0  0  0  0
   11.4856   -5.9650   25.4106 C   0  0  0  0  0  0  0  0  0  0  0  0
   11.4356   -7.0783   24.9562 O   0  0  0  0  0  0  0  0  0  0  0  0
   10.4969   -5.7286   26.5799 C   0  0  0  0  0  0  0  0  0  0  0  0
   10.0688   -4.4710   27.0408 C   0  0  0  0  0  0  0  0  0  0  0  0
    9.0614   -4.3487   28.0193 C   0  0  0  0  0  0  0  0  0  0  0  0
    8.4593   -5.4794   28.5658 C   0  0  0  0  0  0  0  0  0  0  0  0
    8.8611   -6.7377   28.1323 C   0  0  0  0  0  0  0  0  0  0  0  0
    9.8625   -6.8567   27.1522 C   0  0  0  0  0  0  0  0  0  0  0  0
   13.2661   -5.5569   22.8626 C   0  0  0  0  0  0  0  0  0  0  0  0
   13.8821   -5.2409   21.6274 C   0  0  0  0  0  0  0  0  0  0  0  0
   14.3531   -3.9352   21.3775 C   0  0  0  0  0  0  0  0  0  0  0  0
   12.8031   -3.7501   17.2894 H   0  0  0  0  0  0  0  0  0  0  0  0
   13.4051   -2.6507   16.0665 H   0  0  0  0  0  0  0  0  0  0  0  0
   14.1821   -4.2396   16.3012 H   0  0  0  0  0  0  0  0  0  0  0  0
   15.2459   -1.0817   16.7517 H   0  0  0  0  0  0  0  0  0  0  0  0
   16.3562   -1.5849   17.9902 H   0  0  0  0  0  0  0  0  0  0  0  0
   16.5222   -3.3796   14.4288 H   0  0  0  0  0  0  0  0  0  0  0  0
   14.2834   -4.6191   18.8138 H   0  0  0  0  0  0  0  0  0  0  0  0
   18.1879   -4.4247   18.7262 H   0  0  0  0  0  0  0  0  0  0  0  0
   15.6063   -1.1062   20.1541 H   0  0  0  0  0  0  0  0  0  0  0  0
   14.8704   -1.0055   22.5316 H   0  0  0  0  0  0  0  0  0  0  0  0
   13.5203   -2.5427   24.4064 H   0  0  0  0  0  0  0  0  0  0  0  0
   12.1035   -4.0561   25.6478 H   0  0  0  0  0  0  0  0  0  0  0  0
   10.4462   -3.5491   26.6083 H   0  0  0  0  0  0  0  0  0  0  0  0
    8.7325   -3.3577   28.3274 H   0  0  0  0  0  0  0  0  0  0  0  0
    7.6838   -5.3706   29.3182 H   0  0  0  0  0  0  0  0  0  0  0  0
    8.4090   -7.6325   28.5503 H   0  0  0  0  0  0  0  0  0  0  0  0
   10.1497   -7.8550   26.8236 H   0  0  0  0  0  0  0  0  0  0  0  0
   12.8990   -6.5690   23.0084 H   0  0  0  0  0  0  0  0  0  0  0  0
   13.9753   -6.0059   20.8681 H   0  0  0  0  0  0  0  0  0  0  0  0
  1  2  1  0
  2  3  1  0
  3  4  1  0
  4  5  2  0
  4  6  1  0
  2  7  1  0
  7  8  1  0
  8  9  2  0
  8 10  1  0
  7 11  1  0
 11 12  2  0
 12 13  1  0
 13 14  1  0
 14 15  2  0
 15 16  1  0
 16 17  1  0
 17 18  1  0
 18 19  2  0
 18 20  1  0
 20 21  2  0
 21 22  1  0
 22 23  2  0
 23 24  1  0
 24 25  2  0
 16 26  2  0
 26 27  1  0
 27 28  2  0
 28 11  1  0
 28 14  1  0
 25 20  1  0
  1 29  1  0
  1 30  1  0
  1 31  1  0
  3 32  1  0
  3 33  1  0
  6 34  1  0
  7 35  1  0
 10 36  1  0
 12 37  1  0
 13 38  1  0
 15 39  1  0
 17 40  1  0
 21 41  1  0
 22 42  1  0
 23 43  1  0
 24 44  1  0
 25 45  1  0
 26 46  1  0
 27 47  1  0
M  END
>  <Energy>  (894) 
120.39164317340824

>  <compound_id>  (894) 
67660

>  <target_id>  (894) 
1

>  <reference_id>  (894) 
76

>  <inspiration_ids>  (894) 
[40, 76]

>  <energy_score>  (894) 
-62.410010658956935

>  <distance_score>  (894) 
8.441812780456198

>  <path>  (894) 
/opt/xchem-fragalysis-2/maxwin/BulkDock/SCRATCH/511024/C67660-P76/C67660-P76.minimised.mol

>  <scratch_subdir>  (894) 
/opt/xchem-fragalysis-2/maxwin/BulkDock/SCRATCH/511024/C67660-P76

>  <fragmenstein_runtime>  (894) 
13.373069047927856

>  <fragmenstein_outcome>  (894) 
too moved

>  <fragmenstein_mode>  (894) 
expansion

>  <fragmenstein_error>  (894) 


$$$$
C81026-P40
     RDKit          3D

 43 44  0  0  0  0  0  0  0  0999 V2000
    8.6556    5.6500   20.4651 C   0  0  0  0  0  0  0  0  0  0  0  0
    7.4622    5.5039   19.4725 C   0  0  0  0  0  0  0  0  0  0  0  0
    7.4579    4.0705   18.9295 C   0  0  0  0  0  0  0  0  0  0  0  0
    7.9801    6.3278   18.2215 C   0  0  0  0  0  0  0  0  0  0  0  0
    5.9589    6.1390   19.9905 C   0  0  0  0  0  0  0  0  0  0  0  0
    6.2567    7.4344   20.7850 C   0  0  0  0  0  0  0  0  0  0  0  0
    5.4019    6.5449   18.6988 O   0  0  0  0  0  0  0  0  0  0  0  0
    4.4878    5.5170   20.7988 C   0  0  0  0  0  0  0  0  0  0  0  0
    4.2699    4.9119   22.1969 N   0  0  0  0  0  0  0  0  0  0  0  0
    2.8987    4.4705   22.6228 C   0  0  0  0  0  0  0  0  0  0  0  0
    2.7741    3.7298   23.9898 C   0  0  0  0  0  0  0  0  0  0  0  0
    1.7232    3.9966   24.8825 C   0  0  0  0  0  0  0  0  0  0  0  0
    1.5040    3.2465   26.0651 C   0  0  0  0  0  0  0  0  0  0  0  0
    2.3548    2.1663   26.3342 C   0  0  0  0  0  0  0  0  0  0  0  0
    2.3262    1.2144   27.3318 N   0  0  0  0  0  0  0  0  0  0  0  0
    3.3345    0.3034   27.1453 C   0  0  0  0  0  0  0  0  0  0  0  0
    4.0464    0.6895   26.0320 C   0  0  0  0  0  0  0  0  0  0  0  0
    3.4185    1.8546   25.4952 C   0  0  0  0  0  0  0  0  0  0  0  0
    3.6095    2.6586   24.3375 C   0  0  0  0  0  0  0  0  0  0  0  0
    9.5743    5.2235   20.0422 H   0  0  0  0  0  0  0  0  0  0  0  0
    8.8700    6.7040   20.6734 H   0  0  0  0  0  0  0  0  0  0  0  0
    8.5130    5.1636   21.4244 H   0  0  0  0  0  0  0  0  0  0  0  0
    6.7198    3.9523   18.1310 H   0  0  0  0  0  0  0  0  0  0  0  0
    7.2661    3.3620   19.7243 H   0  0  0  0  0  0  0  0  0  0  0  0
    8.4299    3.7915   18.5033 H   0  0  0  0  0  0  0  0  0  0  0  0
    8.0231    7.4000   18.4367 H   0  0  0  0  0  0  0  0  0  0  0  0
    7.3400    6.1822   17.3440 H   0  0  0  0  0  0  0  0  0  0  0  0
    8.9903    6.0177   17.9254 H   0  0  0  0  0  0  0  0  0  0  0  0
    6.6523    7.2014   21.7780 H   0  0  0  0  0  0  0  0  0  0  0  0
    6.9635    8.0843   20.2615 H   0  0  0  0  0  0  0  0  0  0  0  0
    5.3533    8.0418   20.9115 H   0  0  0  0  0  0  0  0  0  0  0  0
    4.7076    7.2051   18.8655 H   0  0  0  0  0  0  0  0  0  0  0  0
    3.8444    6.4098   20.8218 H   0  0  0  0  0  0  0  0  0  0  0  0
    3.9648    4.8944   20.0721 H   0  0  0  0  0  0  0  0  0  0  0  0
    4.8090    4.0408   22.1152 H   0  0  0  0  0  0  0  0  0  0  0  0
    2.2684    5.3661   22.6608 H   0  0  0  0  0  0  0  0  0  0  0  0
    2.4860    3.8025   21.8573 H   0  0  0  0  0  0  0  0  0  0  0  0
    1.0285    4.8062   24.6592 H   0  0  0  0  0  0  0  0  0  0  0  0
    0.6660    3.4813   26.7146 H   0  0  0  0  0  0  0  0  0  0  0  0
    1.6328    1.1766   28.0665 H   0  0  0  0  0  0  0  0  0  0  0  0
    3.4614   -0.5289   27.8242 H   0  0  0  0  0  0  0  0  0  0  0  0
    4.9099    0.1760   25.6276 H   0  0  0  0  0  0  0  0  0  0  0  0
    4.3860    2.4055   23.6403 H   0  0  0  0  0  0  0  0  0  0  0  0
  1  2  1  0
  2  3  1  0
  2  4  1  0
  2  5  1  0
  5  6  1  0
  5  7  1  0
  5  8  1  0
  8  9  1  0
  9 10  1  0
 10 11  1  0
 11 12  2  0
 12 13  1  0
 13 14  2  0
 14 15  1  0
 15 16  1  0
 16 17  2  0
 17 18  1  0
 18 19  2  0
 19 11  1  0
 18 14  1  0
  1 20  1  0
  1 21  1  0
  1 22  1  0
  3 23  1  0
  3 24  1  0
  3 25  1  0
  4 26  1  0
  4 27  1  0
  4 28  1  0
  6 29  1  0
  6 30  1  0
  6 31  1  0
  7 32  1  0
  8 33  1  0
  8 34  1  0
  9 35  1  0
 10 36  1  0
 10 37  1  0
 12 38  1  0
 13 39  1  0
 15 40  1  0
 16 41  1  0
 17 42  1  0
 19 43  1  0
M  END
>  <Energy>  (895) 
127.3801889570444

>  <compound_id>  (895) 
81026

>  <target_id>  (895) 
1

>  <reference_id>  (895) 
40

>  <inspiration_ids>  (895) 
[40, 76]

>  <energy_score>  (895) 
24.18036813536162

>  <distance_score>  (895) 
10.733001268760475

>  <path>  (895) 
/opt/xchem-fragalysis-2/maxwin/BulkDock/SCRATCH/511024/C81026-P40/C81026-P40.minimised.mol

>  <scratch_subdir>  (895) 
/opt/xchem-fragalysis-2/maxwin/BulkDock/SCRATCH/511024/C81026-P40

>  <fragmenstein_runtime>  (895) 
6.563128232955933

>  <fragmenstein_outcome>  (895) 
too moved

>  <fragmenstein_mode>  (895) 
expansion

>  <fragmenstein_error>  (895) 


$$$$
C81026-P76
     RDKit          3D

 43 44  0  0  0  0  0  0  0  0999 V2000
   12.6324    0.6066   23.9072 C   0  0  0  0  0  0  0  0  0  0  0  0
   11.5599    1.6630   23.6063 C   0  0  0  0  0  0  0  0  0  0  0  0
   10.9021    1.3450   22.2524 C   0  0  0  0  0  0  0  0  0  0  0  0
   12.2971    3.0064   23.3327 C   0  0  0  0  0  0  0  0  0  0  0  0
   10.4643    1.7796   24.7942 C   0  0  0  0  0  0  0  0  0  0  0  0
   10.9625    2.7034   25.9285 C   0  0  0  0  0  0  0  0  0  0  0  0
    9.3314    2.4450   24.2012 O   0  0  0  0  0  0  0  0  0  0  0  0
    9.9276    0.4172   25.5549 C   0  0  0  0  0  0  0  0  0  0  0  0
    8.6033    0.4627   26.3474 N   0  0  0  0  0  0  0  0  0  0  0  0
    8.2650   -0.8641   26.9846 C   0  0  0  0  0  0  0  0  0  0  0  0
    6.8886   -1.0441   27.6544 C   0  0  0  0  0  0  0  0  0  0  0  0
    5.7491   -0.3092   27.3067 C   0  0  0  0  0  0  0  0  0  0  0  0
    4.4653   -0.6302   27.7916 C   0  0  0  0  0  0  0  0  0  0  0  0
    4.3399   -1.7179   28.6612 C   0  0  0  0  0  0  0  0  0  0  0  0
    3.2221   -2.2740   29.2420 N   0  0  0  0  0  0  0  0  0  0  0  0
    3.5818   -3.3193   30.0539 C   0  0  0  0  0  0  0  0  0  0  0  0
    4.9507   -3.4568   29.9757 C   0  0  0  0  0  0  0  0  0  0  0  0
    5.4402   -2.4601   29.0811 C   0  0  0  0  0  0  0  0  0  0  0  0
    6.7173   -2.1189   28.5684 C   0  0  0  0  0  0  0  0  0  0  0  0
   13.3697    0.5364   23.0995 H   0  0  0  0  0  0  0  0  0  0  0  0
   13.1740    0.8484   24.8279 H   0  0  0  0  0  0  0  0  0  0  0  0
   12.1876   -0.3846   24.0376 H   0  0  0  0  0  0  0  0  0  0  0  0
   11.6663    1.2419   21.4852 H   0  0  0  0  0  0  0  0  0  0  0  0
   10.2224    2.1378   21.9212 H   0  0  0  0  0  0  0  0  0  0  0  0
   10.3337    0.4269   22.3083 H   0  0  0  0  0  0  0  0  0  0  0  0
   11.5859    3.8178   23.1422 H   0  0  0  0  0  0  0  0  0  0  0  0
   12.9271    3.2966   24.1804 H   0  0  0  0  0  0  0  0  0  0  0  0
   12.9591    2.9326   22.4614 H   0  0  0  0  0  0  0  0  0  0  0  0
   11.8989    2.3385   26.3611 H   0  0  0  0  0  0  0  0  0  0  0  0
   10.2220    2.7713   26.7341 H   0  0  0  0  0  0  0  0  0  0  0  0
   11.1018    3.7328   25.5823 H   0  0  0  0  0  0  0  0  0  0  0  0
    8.7499    2.6692   24.9513 H   0  0  0  0  0  0  0  0  0  0  0  0
   10.7169    0.0901   26.2430 H   0  0  0  0  0  0  0  0  0  0  0  0
    9.8204   -0.3638   24.8117 H   0  0  0  0  0  0  0  0  0  0  0  0
    7.8768    0.6341   25.6596 H   0  0  0  0  0  0  0  0  0  0  0  0
    8.3406   -1.6426   26.2153 H   0  0  0  0  0  0  0  0  0  0  0  0
    9.0343   -1.0564   27.7418 H   0  0  0  0  0  0  0  0  0  0  0  0
    5.8319    0.5219   26.6133 H   0  0  0  0  0  0  0  0  0  0  0  0
    3.5986   -0.0618   27.4711 H   0  0  0  0  0  0  0  0  0  0  0  0
    2.2784   -1.9448   29.0907 H   0  0  0  0  0  0  0  0  0  0  0  0
    2.8353   -3.8674   30.6132 H   0  0  0  0  0  0  0  0  0  0  0  0
    5.5433   -4.1927   30.5005 H   0  0  0  0  0  0  0  0  0  0  0  0
    7.5744   -2.7248   28.8499 H   0  0  0  0  0  0  0  0  0  0  0  0
  1  2  1  0
  2  3  1  0
  2  4  1  0
  2  5  1  0
  5  6  1  0
  5  7  1  0
  5  8  1  0
  8  9  1  0
  9 10  1  0
 10 11  1  0
 11 12  2  0
 12 13  1  0
 13 14  2  0
 14 15  1  0
 15 16  1  0
 16 17  2  0
 17 18  1  0
 18 19  2  0
 19 11  1  0
 18 14  1  0
  1 20  1  0
  1 21  1  0
  1 22  1  0
  3 23  1  0
  3 24  1  0
  3 25  1  0
  4 26  1  0
  4 27  1  0
  4 28  1  0
  6 29  1  0
  6 30  1  0
  6 31  1  0
  7 32  1  0
  8 33  1  0
  8 34  1  0
  9 35  1  0
 10 36  1  0
 10 37  1  0
 12 38  1  0
 13 39  1  0
 15 40  1  0
 16 41  1  0
 17 42  1  0
 19 43  1  0
M  END
>  <Energy>  (896) 
75.102317425712087

>  <compound_id>  (896) 
81026

>  <target_id>  (896) 
1

>  <reference_id>  (896) 
76

>  <inspiration_ids>  (896) 
[40, 76]

>  <energy_score>  (896) 
-28.097503395970648

>  <distance_score>  (896) 
8.946516254363882

>  <path>  (896) 
/opt/xchem-fragalysis-2/maxwin/BulkDock/SCRATCH/511024/C81026-P76/C81026-P76.minimised.mol

>  <scratch_subdir>  (896) 
/opt/xchem-fragalysis-2/maxwin/BulkDock/SCRATCH/511024/C81026-P76

>  <fragmenstein_runtime>  (896) 
5.576385021209717

>  <fragmenstein_outcome>  (896) 
too moved

>  <fragmenstein_mode>  (896) 
expansion

>  <fragmenstein_error>  (896) 


$$$$
C81030-P40
     RDKit          3D

 40 41  0  0  0  0  0  0  0  0999 V2000
   14.0555   -6.0408   21.6280 C   0  0  0  0  0  0  0  0  0  0  0  0
   12.6943   -5.5056   21.3478 N   0  0  0  0  0  0  0  0  0  0  0  0
   12.9899   -4.7247   22.6832 C   0  0  0  0  0  0  0  0  0  0  0  0
   11.3624   -6.1613   21.4098 C   0  0  0  0  0  0  0  0  0  0  0  0
   11.0539   -7.2750   21.7942 O   0  0  0  0  0  0  0  0  0  0  0  0
    9.8858   -5.1927   20.6452 C   0  0  0  0  0  0  0  0  0  0  0  0
    7.9895   -4.4059   21.0475 N   0  0  0  0  0  0  0  0  0  0  0  0
    6.9014   -4.9314   22.6535 C   0  0  0  0  0  0  0  0  0  0  0  0
    5.9715   -4.8705   24.2982 C   0  0  0  0  0  0  0  0  0  0  0  0
    5.6355   -3.6219   25.0103 C   0  0  0  0  0  0  0  0  0  0  0  0
    5.0421   -3.4842   26.2737 C   0  0  0  0  0  0  0  0  0  0  0  0
    4.6319   -4.5990   26.9604 C   0  0  0  0  0  0  0  0  0  0  0  0
    4.7157   -5.7941   26.2558 C   0  0  0  0  0  0  0  0  0  0  0  0
    4.1877   -7.0100   26.6284 N   0  0  0  0  0  0  0  0  0  0  0  0
    4.1314   -7.8252   25.5485 C   0  0  0  0  0  0  0  0  0  0  0  0
    4.8759   -7.2187   24.5722 C   0  0  0  0  0  0  0  0  0  0  0  0
    5.3225   -5.9492   24.9885 C   0  0  0  0  0  0  0  0  0  0  0  0
    8.4788   -3.1138   21.0136 C   0  0  0  0  0  0  0  0  0  0  0  0
   10.5561   -3.0347   21.7565 C   0  0  0  0  0  0  0  0  0  0  0  0
   10.6953   -2.6577   23.0944 F   0  0  0  0  0  0  0  0  0  0  0  0
   10.9466   -4.2667   22.0159 F   0  0  0  0  0  0  0  0  0  0  0  0
   11.6753   -2.7804   21.0739 F   0  0  0  0  0  0  0  0  0  0  0  0
   14.8512   -5.2793   21.6932 H   0  0  0  0  0  0  0  0  0  0  0  0
   14.0532   -6.8018   22.4222 H   0  0  0  0  0  0  0  0  0  0  0  0
   14.3698   -6.5840   20.7370 H   0  0  0  0  0  0  0  0  0  0  0  0
   12.1536   -4.8100   23.3857 H   0  0  0  0  0  0  0  0  0  0  0  0
   13.8078   -5.0332   23.3643 H   0  0  0  0  0  0  0  0  0  0  0  0
   13.1891   -3.6809   22.4194 H   0  0  0  0  0  0  0  0  0  0  0  0
    9.7854   -6.2282   20.2854 H   0  0  0  0  0  0  0  0  0  0  0  0
   10.0067   -5.2443   19.5668 H   0  0  0  0  0  0  0  0  0  0  0  0
    7.4237   -4.7603   23.4823 H   0  0  0  0  0  0  0  0  0  0  0  0
    6.5715   -3.8552   22.6519 H   0  0  0  0  0  0  0  0  0  0  0  0
    5.8383   -2.6674   24.5271 H   0  0  0  0  0  0  0  0  0  0  0  0
    4.9124   -2.4925   26.6982 H   0  0  0  0  0  0  0  0  0  0  0  0
    4.1669   -4.5249   27.9352 H   0  0  0  0  0  0  0  0  0  0  0  0
    3.7532   -7.1845   27.5199 H   0  0  0  0  0  0  0  0  0  0  0  0
    3.5860   -8.7584   25.5233 H   0  0  0  0  0  0  0  0  0  0  0  0
    4.9351   -7.5653   23.5644 H   0  0  0  0  0  0  0  0  0  0  0  0
    7.5451   -2.7015   21.4060 H   0  0  0  0  0  0  0  0  0  0  0  0
    8.7193   -3.6415   20.0858 H   0  0  0  0  0  0  0  0  0  0  0  0
  1  2  1  0
  2  3  1  0
  2  4  1  0
  4  5  2  0
  4  6  1  0
  6  7  1  0
  7  8  1  0
  8  9  1  0
  9 10  2  0
 10 11  1  0
 11 12  2  0
 12 13  1  0
 13 14  1  0
 14 15  1  0
 15 16  2  0
 16 17  1  0
  7 18  1  0
 18 19  1  0
 19 20  1  0
 19 21  1  0
 19 22  1  0
 17  9  1  0
 17 13  2  0
  1 23  1  0
  1 24  1  0
  1 25  1  0
  3 26  1  0
  3 27  1  0
  3 28  1  0
  6 29  1  0
  6 30  1  0
  8 31  1  0
  8 32  1  0
 10 33  1  0
 11 34  1  0
 12 35  1  0
 14 36  1  0
 15 37  1  0
 16 38  1  0
 18 39  1  0
 18 40  1  0
M  END
>  <Energy>  (897) 
930.46379269057411

>  <compound_id>  (897) 
81030

>  <target_id>  (897) 
1

>  <reference_id>  (897) 
40

>  <inspiration_ids>  (897) 
[40, 76]

>  <energy_score>  (897) 
789.8858251788282

>  <distance_score>  (897) 
8.097444128222175

>  <path>  (897) 
/opt/xchem-fragalysis-2/maxwin/BulkDock/SCRATCH/511024/C81030-P40/C81030-P40.minimised.mol

>  <scratch_subdir>  (897) 
/opt/xchem-fragalysis-2/maxwin/BulkDock/SCRATCH/511024/C81030-P40

>  <fragmenstein_runtime>  (897) 
13.955952405929565

>  <fragmenstein_outcome>  (897) 
too moved

>  <fragmenstein_mode>  (897) 
expansion

>  <fragmenstein_error>  (897) 


$$$$
C81030-P76
     RDKit          3D

 40 41  0  0  0  0  0  0  0  0999 V2000
    2.3309   -3.0523   15.7284 C   0  0  0  0  0  0  0  0  0  0  0  0
    3.3005   -2.3879   16.6463 N   0  0  0  0  0  0  0  0  0  0  0  0
    2.0798   -1.5735   16.9884 C   0  0  0  0  0  0  0  0  0  0  0  0
    4.4278   -1.5112   16.3621 C   0  0  0  0  0  0  0  0  0  0  0  0
    4.7953   -1.0390   15.3264 O   0  0  0  0  0  0  0  0  0  0  0  0
    5.3404   -1.3364   17.9651 C   0  0  0  0  0  0  0  0  0  0  0  0
    6.7661   -0.8833   19.2618 N   0  0  0  0  0  0  0  0  0  0  0  0
    6.1839   -1.0271   21.1994 C   0  0  0  0  0  0  0  0  0  0  0  0
    5.2278   -1.7933   22.8378 C   0  0  0  0  0  0  0  0  0  0  0  0
    5.9019   -2.2664   24.1140 C   0  0  0  0  0  0  0  0  0  0  0  0
    6.3402   -1.6589   25.5626 C   0  0  0  0  0  0  0  0  0  0  0  0
    5.5920   -0.7106   26.1811 C   0  0  0  0  0  0  0  0  0  0  0  0
    4.4676   -0.6288   25.3766 C   0  0  0  0  0  0  0  0  0  0  0  0
    3.2140   -0.3875   25.8969 N   0  0  0  0  0  0  0  0  0  0  0  0
    2.7611   -1.6685   25.9354 C   0  0  0  0  0  0  0  0  0  0  0  0
    3.2740   -2.2104   24.7608 C   0  0  0  0  0  0  0  0  0  0  0  0
    4.2672   -1.3615   24.0871 C   0  0  0  0  0  0  0  0  0  0  0  0
    7.6013    0.1426   18.6281 C   0  0  0  0  0  0  0  0  0  0  0  0
    7.5089    0.0680   16.9024 C   0  0  0  0  0  0  0  0  0  0  0  0
    6.3835   -0.1972   16.2802 F   0  0  0  0  0  0  0  0  0  0  0  0
    8.0021    1.2298   16.3515 F   0  0  0  0  0  0  0  0  0  0  0  0
    8.2160   -0.9486   16.2825 F   0  0  0  0  0  0  0  0  0  0  0  0
    1.5822   -3.6798   16.2327 H   0  0  0  0  0  0  0  0  0  0  0  0
    2.9574   -3.7768   15.1875 H   0  0  0  0  0  0  0  0  0  0  0  0
    1.9403   -2.4210   14.9159 H   0  0  0  0  0  0  0  0  0  0  0  0
    2.3535   -0.9240   17.8155 H   0  0  0  0  0  0  0  0  0  0  0  0
    1.2101   -2.1272   17.3729 H   0  0  0  0  0  0  0  0  0  0  0  0
    1.8099   -0.8575   16.1950 H   0  0  0  0  0  0  0  0  0  0  0  0
    4.4815   -0.7614   18.1572 H   0  0  0  0  0  0  0  0  0  0  0  0
    4.9802   -2.2360   18.4354 H   0  0  0  0  0  0  0  0  0  0  0  0
    5.9136   -2.0873   20.9335 H   0  0  0  0  0  0  0  0  0  0  0  0
    5.6356   -0.0898   21.2048 H   0  0  0  0  0  0  0  0  0  0  0  0
    6.4630   -3.2340   23.9889 H   0  0  0  0  0  0  0  0  0  0  0  0
    7.2104   -2.0918   26.0582 H   0  0  0  0  0  0  0  0  0  0  0  0
    5.7035   -0.3478   27.1854 H   0  0  0  0  0  0  0  0  0  0  0  0
    3.0465    0.2502   26.6566 H   0  0  0  0  0  0  0  0  0  0  0  0
    2.0468   -2.0225   26.6637 H   0  0  0  0  0  0  0  0  0  0  0  0
    2.9780   -3.1473   24.3775 H   0  0  0  0  0  0  0  0  0  0  0  0
    7.3910    1.1502   18.9978 H   0  0  0  0  0  0  0  0  0  0  0  0
    8.6244   -0.0160   18.9448 H   0  0  0  0  0  0  0  0  0  0  0  0
  1  2  1  0
  2  3  1  0
  2  4  1  0
  4  5  2  0
  4  6  1  0
  6  7  1  0
  7  8  1  0
  8  9  1  0
  9 10  2  0
 10 11  1  0
 11 12  2  0
 12 13  1  0
 13 14  1  0
 14 15  1  0
 15 16  2  0
 16 17  1  0
  7 18  1  0
 18 19  1  0
 19 20  1  0
 19 21  1  0
 19 22  1  0
 17  9  1  0
 17 13  2  0
  1 23  1  0
  1 24  1  0
  1 25  1  0
  3 26  1  0
  3 27  1  0
  3 28  1  0
  6 29  1  0
  6 30  1  0
  8 31  1  0
  8 32  1  0
 10 33  1  0
 11 34  1  0
 12 35  1  0
 14 36  1  0
 15 37  1  0
 16 38  1  0
 18 39  1  0
 18 40  1  0
M  END
>  <Energy>  (898) 
836.67962670567749

>  <compound_id>  (898) 
81030

>  <target_id>  (898) 
1

>  <reference_id>  (898) 
76

>  <inspiration_ids>  (898) 
[40, 76]

>  <energy_score>  (898) 
696.101659193935

>  <distance_score>  (898) 
8.76244538934746

>  <path>  (898) 
/opt/xchem-fragalysis-2/maxwin/BulkDock/SCRATCH/511024/C81030-P76/C81030-P76.minimised.mol

>  <scratch_subdir>  (898) 
/opt/xchem-fragalysis-2/maxwin/BulkDock/SCRATCH/511024/C81030-P76

>  <fragmenstein_runtime>  (898) 
14.09895634651184

>  <fragmenstein_outcome>  (898) 
too moved

>  <fragmenstein_mode>  (898) 
expansion

>  <fragmenstein_error>  (898) 


$$$$
C81031-P40
     RDKit          3D

 40 41  0  0  0  0  0  0  0  0999 V2000
    9.2998    0.2584   15.5614 C   0  0  0  0  0  0  0  0  0  0  0  0
    8.0184    0.4472   16.3712 C   0  0  0  0  0  0  0  0  0  0  0  0
    8.3480    0.8975   17.8088 C   0  0  0  0  0  0  0  0  0  0  0  0
    8.4070    2.3457   17.7242 O   0  0  0  0  0  0  0  0  0  0  0  0
    7.6628    0.5492   19.2454 C   0  0  0  0  0  0  0  0  0  0  0  0
    6.8334   -0.7915   20.1905 C   0  0  0  0  0  0  0  0  0  0  0  0
    5.7597   -2.2716   20.8720 N   0  0  0  0  0  0  0  0  0  0  0  0
    5.5251   -3.3107   19.8564 C   0  0  0  0  0  0  0  0  0  0  0  0
    5.9824   -2.9683   22.6062 C   0  0  0  0  0  0  0  0  0  0  0  0
    5.3868   -2.4390   24.2196 C   0  0  0  0  0  0  0  0  0  0  0  0
    4.8355   -1.1729   24.5133 C   0  0  0  0  0  0  0  0  0  0  0  0
    4.3310   -0.7907   25.7679 C   0  0  0  0  0  0  0  0  0  0  0  0
    4.2356   -1.6940   26.8149 C   0  0  0  0  0  0  0  0  0  0  0  0
    4.6597   -2.9924   26.5512 C   0  0  0  0  0  0  0  0  0  0  0  0
    4.6209   -4.0877   27.3854 N   0  0  0  0  0  0  0  0  0  0  0  0
    5.0909   -5.1934   26.7442 C   0  0  0  0  0  0  0  0  0  0  0  0
    5.4961   -4.7935   25.4924 C   0  0  0  0  0  0  0  0  0  0  0  0
    5.2273   -3.3881   25.3303 C   0  0  0  0  0  0  0  0  0  0  0  0
    9.7857   -0.6908   15.8034 H   0  0  0  0  0  0  0  0  0  0  0  0
    9.0521    0.2787   14.5004 H   0  0  0  0  0  0  0  0  0  0  0  0
   10.0128    1.0720   15.7323 H   0  0  0  0  0  0  0  0  0  0  0  0
    7.3974   -0.4394   16.2827 H   0  0  0  0  0  0  0  0  0  0  0  0
    7.4992    1.2412   15.8203 H   0  0  0  0  0  0  0  0  0  0  0  0
    9.4007    0.7017   17.9123 H   0  0  0  0  0  0  0  0  0  0  0  0
    7.4783    2.6071   17.5525 H   0  0  0  0  0  0  0  0  0  0  0  0
    7.3594    1.5026   19.6546 H   0  0  0  0  0  0  0  0  0  0  0  0
    8.6210    0.4452   19.7601 H   0  0  0  0  0  0  0  0  0  0  0  0
    7.5382   -0.9927   20.8195 H   0  0  0  0  0  0  0  0  0  0  0  0
    6.8211   -1.0143   19.1440 H   0  0  0  0  0  0  0  0  0  0  0  0
    5.3651   -2.6472   19.0375 H   0  0  0  0  0  0  0  0  0  0  0  0
    4.7100   -3.9992   19.9055 H   0  0  0  0  0  0  0  0  0  0  0  0
    6.2684   -4.1066   19.5927 H   0  0  0  0  0  0  0  0  0  0  0  0
    6.2704   -3.9934   22.9593 H   0  0  0  0  0  0  0  0  0  0  0  0
    6.9558   -3.1179   22.2026 H   0  0  0  0  0  0  0  0  0  0  0  0
    4.8640   -0.4063   23.7521 H   0  0  0  0  0  0  0  0  0  0  0  0
    3.9850    0.2319   25.9015 H   0  0  0  0  0  0  0  0  0  0  0  0
    3.8214   -1.4016   27.7726 H   0  0  0  0  0  0  0  0  0  0  0  0
    4.2929   -4.0577   28.3394 H   0  0  0  0  0  0  0  0  0  0  0  0
    5.1361   -6.1580   27.2297 H   0  0  0  0  0  0  0  0  0  0  0  0
    5.9423   -5.4449   24.7516 H   0  0  0  0  0  0  0  0  0  0  0  0
  1  2  1  0
  2  3  1  0
  3  4  1  0
  3  5  1  0
  5  6  1  0
  6  7  1  0
  7  8  1  0
  7  9  1  0
  9 10  1  0
 10 11  2  0
 11 12  1  0
 12 13  2  0
 13 14  1  0
 14 15  1  0
 15 16  1  0
 16 17  2  0
 17 18  1  0
 18 10  1  0
 18 14  2  0
  1 19  1  0
  1 20  1  0
  1 21  1  0
  2 22  1  0
  2 23  1  0
  3 24  1  0
  4 25  1  0
  5 26  1  0
  5 27  1  0
  6 28  1  0
  6 29  1  0
  8 30  1  0
  8 31  1  0
  8 32  1  0
  9 33  1  0
  9 34  1  0
 11 35  1  0
 12 36  1  0
 13 37  1  0
 15 38  1  0
 16 39  1  0
 17 40  1  0
M  END
>  <Energy>  (899) 
403.65099355106747

>  <compound_id>  (899) 
81031

>  <target_id>  (899) 
1

>  <reference_id>  (899) 
40

>  <inspiration_ids>  (899) 
[40, 76]

>  <energy_score>  (899) 
331.5917008669897

>  <distance_score>  (899) 
7.718768199848209

>  <path>  (899) 
/opt/xchem-fragalysis-2/maxwin/BulkDock/SCRATCH/511024/C81031-P40/C81031-P40.minimised.mol

>  <scratch_subdir>  (899) 
/opt/xchem-fragalysis-2/maxwin/BulkDock/SCRATCH/511024/C81031-P40

>  <fragmenstein_runtime>  (899) 
4.33220362663269

>  <fragmenstein_outcome>  (899) 
too moved

>  <fragmenstein_mode>  (899) 
expansion

>  <fragmenstein_error>  (899) 


$$$$
C81031-P76
     RDKit          3D

 40 41  0  0  0  0  0  0  0  0999 V2000
   13.9339   -6.1520   20.7159 C   0  0  0  0  0  0  0  0  0  0  0  0
   12.5357   -6.2771   20.1190 C   0  0  0  0  0  0  0  0  0  0  0  0
   11.6848   -4.9778   20.2892 C   0  0  0  0  0  0  0  0  0  0  0  0
   12.3251   -4.0640   19.4011 O   0  0  0  0  0  0  0  0  0  0  0  0
   10.0271   -5.3549   19.9024 C   0  0  0  0  0  0  0  0  0  0  0  0
    8.1841   -4.6998   20.6851 C   0  0  0  0  0  0  0  0  0  0  0  0
    7.6107   -5.2427   22.4329 N   0  0  0  0  0  0  0  0  0  0  0  0
    7.0717   -4.1903   23.2469 C   0  0  0  0  0  0  0  0  0  0  0  0
    7.4712   -6.6750   23.4017 C   0  0  0  0  0  0  0  0  0  0  0  0
    8.3742   -7.6018   24.7597 C   0  0  0  0  0  0  0  0  0  0  0  0
    9.3399   -6.8699   25.5786 C   0  0  0  0  0  0  0  0  0  0  0  0
    9.4859   -7.0347   26.9596 C   0  0  0  0  0  0  0  0  0  0  0  0
    8.7609   -7.9936   27.6318 C   0  0  0  0  0  0  0  0  0  0  0  0
    8.0674   -8.8984   26.8371 C   0  0  0  0  0  0  0  0  0  0  0  0
    7.4713  -10.0678   27.2511 N   0  0  0  0  0  0  0  0  0  0  0  0
    7.1968  -10.8382   26.1682 C   0  0  0  0  0  0  0  0  0  0  0  0
    7.4220  -10.0658   25.0515 C   0  0  0  0  0  0  0  0  0  0  0  0
    7.9114   -8.7844   25.4403 C   0  0  0  0  0  0  0  0  0  0  0  0
   14.4635   -7.1065   20.6304 H   0  0  0  0  0  0  0  0  0  0  0  0
   14.5313   -5.3970   20.1969 H   0  0  0  0  0  0  0  0  0  0  0  0
   13.8829   -5.8871   21.7766 H   0  0  0  0  0  0  0  0  0  0  0  0
   12.6384   -6.5045   19.0501 H   0  0  0  0  0  0  0  0  0  0  0  0
   12.0560   -7.1469   20.5782 H   0  0  0  0  0  0  0  0  0  0  0  0
   11.8140   -4.5632   21.2906 H   0  0  0  0  0  0  0  0  0  0  0  0
   13.1611   -3.7932   19.8230 H   0  0  0  0  0  0  0  0  0  0  0  0
   10.2000   -5.2882   18.8419 H   0  0  0  0  0  0  0  0  0  0  0  0
   10.1086   -6.4606   19.8576 H   0  0  0  0  0  0  0  0  0  0  0  0
    7.3487   -4.9342   19.9918 H   0  0  0  0  0  0  0  0  0  0  0  0
    8.1286   -3.6676   20.9448 H   0  0  0  0  0  0  0  0  0  0  0  0
    6.6256   -3.3997   22.7033 H   0  0  0  0  0  0  0  0  0  0  0  0
    7.5796   -3.7010   24.0357 H   0  0  0  0  0  0  0  0  0  0  0  0
    6.3039   -4.6610   23.7966 H   0  0  0  0  0  0  0  0  0  0  0  0
    8.1172   -5.9911   23.8894 H   0  0  0  0  0  0  0  0  0  0  0  0
    6.4256   -6.7024   23.7153 H   0  0  0  0  0  0  0  0  0  0  0  0
    9.8488   -5.9814   25.2103 H   0  0  0  0  0  0  0  0  0  0  0  0
   10.1349   -6.3564   27.5107 H   0  0  0  0  0  0  0  0  0  0  0  0
    8.8612   -8.1191   28.7044 H   0  0  0  0  0  0  0  0  0  0  0  0
    7.4625  -10.3926   28.2076 H   0  0  0  0  0  0  0  0  0  0  0  0
    6.8630  -11.8629   26.2693 H   0  0  0  0  0  0  0  0  0  0  0  0
    7.3050  -10.4495   24.0504 H   0  0  0  0  0  0  0  0  0  0  0  0
  1  2  1  0
  2  3  1  0
  3  4  1  0
  3  5  1  0
  5  6  1  0
  6  7  1  0
  7  8  1  0
  7  9  1  0
  9 10  1  0
 10 11  2  0
 11 12  1  0
 12 13  2  0
 13 14  1  0
 14 15  1  0
 15 16  1  0
 16 17  2  0
 17 18  1  0
 18 10  1  0
 18 14  2  0
  1 19  1  0
  1 20  1  0
  1 21  1  0
  2 22  1  0
  2 23  1  0
  3 24  1  0
  4 25  1  0
  5 26  1  0
  5 27  1  0
  6 28  1  0
  6 29  1  0
  8 30  1  0
  8 31  1  0
  8 32  1  0
  9 33  1  0
  9 34  1  0
 11 35  1  0
 12 36  1  0
 13 37  1  0
 15 38  1  0
 16 39  1  0
 17 40  1  0
M  END
>  <Energy>  (900) 
389.96736001442457

>  <compound_id>  (900) 
81031

>  <target_id>  (900) 
1

>  <reference_id>  (900) 
76

>  <inspiration_ids>  (900) 
[40, 76]

>  <energy_score>  (900) 
317.9080673303468

>  <distance_score>  (900) 
9.619595145555603

>  <path>  (900) 
/opt/xchem-fragalysis-2/maxwin/BulkDock/SCRATCH/511024/C81031-P76/C81031-P76.minimised.mol

>  <scratch_subdir>  (900) 
/opt/xchem-fragalysis-2/maxwin/BulkDock/SCRATCH/511024/C81031-P76

>  <fragmenstein_runtime>  (900) 
6.444190502166748

>  <fragmenstein_outcome>  (900) 
too moved

>  <fragmenstein_mode>  (900) 
expansion

>  <fragmenstein_error>  (900) 


$$$$
C81036-P40
     RDKit          3D

 32 33  0  0  0  0  0  0  0  0999 V2000
    9.0731    1.3393   17.1195 C   0  0  0  0  0  0  0  0  0  0  0  0
    8.3066    0.4965   18.0469 N   0  0  0  0  0  0  0  0  0  0  0  0
    7.9311    1.0215   19.4508 C   0  0  0  0  0  0  0  0  0  0  0  0
    6.7491   -0.2146   20.2376 C   0  0  0  0  0  0  0  0  0  0  0  0
    4.9877   -0.6882   21.9405 S   0  0  0  0  0  0  0  0  0  0  0  0
    4.8908   -1.1120   23.8907 C   0  0  0  0  0  0  0  0  0  0  0  0
    5.1699   -2.2013   24.7129 C   0  0  0  0  0  0  0  0  0  0  0  0
    4.6188   -1.9844   26.0115 C   0  0  0  0  0  0  0  0  0  0  0  0
    4.4695   -2.7893   27.1636 C   0  0  0  0  0  0  0  0  0  0  0  0
    3.7569   -2.2935   28.2615 C   0  0  0  0  0  0  0  0  0  0  0  0
    3.2191   -1.0090   28.2254 C   0  0  0  0  0  0  0  0  0  0  0  0
    3.3849   -0.1836   27.1027 C   0  0  0  0  0  0  0  0  0  0  0  0
    4.0900   -0.6987   26.0043 C   0  0  0  0  0  0  0  0  0  0  0  0
    4.3507   -0.1630   24.7522 N   0  0  0  0  0  0  0  0  0  0  0  0
    8.0355    2.7054   19.2461 C   0  0  0  0  0  0  0  0  0  0  0  0
    9.2097    3.2724   19.9080 N   0  0  0  0  0  0  0  0  0  0  0  0
    7.2178    3.2222   18.5459 O   0  0  0  0  0  0  0  0  0  0  0  0
    9.9039    1.8450   17.5884 H   0  0  0  0  0  0  0  0  0  0  0  0
    9.4733    0.7033   16.3236 H   0  0  0  0  0  0  0  0  0  0  0  0
    8.4420    2.0896   16.6331 H   0  0  0  0  0  0  0  0  0  0  0  0
    7.3677    0.5020   17.5908 H   0  0  0  0  0  0  0  0  0  0  0  0
    8.8265    0.7738   19.9986 H   0  0  0  0  0  0  0  0  0  0  0  0
    6.7919   -0.7154   19.2704 H   0  0  0  0  0  0  0  0  0  0  0  0
    7.3220   -0.9921   20.6126 H   0  0  0  0  0  0  0  0  0  0  0  0
    5.6635   -3.1170   24.4460 H   0  0  0  0  0  0  0  0  0  0  0  0
    4.8849   -3.7920   27.1810 H   0  0  0  0  0  0  0  0  0  0  0  0
    3.6269   -2.9106   29.1454 H   0  0  0  0  0  0  0  0  0  0  0  0
    2.6627   -0.6331   29.0811 H   0  0  0  0  0  0  0  0  0  0  0  0
    2.9549    0.8124   27.0780 H   0  0  0  0  0  0  0  0  0  0  0  0
    3.9642    0.6958   24.3900 H   0  0  0  0  0  0  0  0  0  0  0  0
    9.6244    2.5597   20.5279 H   0  0  0  0  0  0  0  0  0  0  0  0
    9.7536    2.5127   20.3365 H   0  0  0  0  0  0  0  0  0  0  0  0
  1  2  1  0
  2  3  1  0
  3  4  1  0
  4  5  1  0
  5  6  1  0
  6  7  2  0
  7  8  1  0
  8  9  2  0
  9 10  1  0
 10 11  2  0
 11 12  1  0
 12 13  2  0
 13 14  1  0
  3 15  1  0
 15 16  1  0
 15 17  2  0
 14  6  1  0
 13  8  1  0
  1 18  1  0
  1 19  1  0
  1 20  1  0
  2 21  1  0
  3 22  1  0
  4 23  1  0
  4 24  1  0
  7 25  1  0
  9 26  1  0
 10 27  1  0
 11 28  1  0
 12 29  1  0
 14 30  1  0
 16 31  1  0
 16 32  1  0
M  END
>  <Energy>  (901) 
493.99845260573807

>  <compound_id>  (901) 
81036

>  <target_id>  (901) 
1

>  <reference_id>  (901) 
40

>  <inspiration_ids>  (901) 
[40, 76]

>  <energy_score>  (901) 
419.1222461633899

>  <distance_score>  (901) 
7.084048880257088

>  <path>  (901) 
/opt/xchem-fragalysis-2/maxwin/BulkDock/SCRATCH/511024/C81036-P40/C81036-P40.minimised.mol

>  <scratch_subdir>  (901) 
/opt/xchem-fragalysis-2/maxwin/BulkDock/SCRATCH/511024/C81036-P40

>  <fragmenstein_runtime>  (901) 
4.435448408126831

>  <fragmenstein_outcome>  (901) 
too moved

>  <fragmenstein_mode>  (901) 
expansion

>  <fragmenstein_error>  (901) 


$$$$
C81036-P76
     RDKit          3D

 32 33  0  0  0  0  0  0  0  0999 V2000
    8.7411    2.4532   18.2550 C   0  0  0  0  0  0  0  0  0  0  0  0
    7.7131    1.7554   19.0456 N   0  0  0  0  0  0  0  0  0  0  0  0
    8.1439    0.6958   20.0085 C   0  0  0  0  0  0  0  0  0  0  0  0
    6.8994   -0.6147   20.4945 C   0  0  0  0  0  0  0  0  0  0  0  0
    5.5105   -1.8509   21.9397 S   0  0  0  0  0  0  0  0  0  0  0  0
    4.7608   -1.6895   23.8595 C   0  0  0  0  0  0  0  0  0  0  0  0
    3.5172   -2.0753   24.3820 C   0  0  0  0  0  0  0  0  0  0  0  0
    3.4165   -1.7962   25.8053 C   0  0  0  0  0  0  0  0  0  0  0  0
    2.4746   -1.9019   26.8631 C   0  0  0  0  0  0  0  0  0  0  0  0
    2.8053   -1.5496   28.1798 C   0  0  0  0  0  0  0  0  0  0  0  0
    4.0805   -1.0977   28.4757 C   0  0  0  0  0  0  0  0  0  0  0  0
    5.0458   -1.0093   27.4700 C   0  0  0  0  0  0  0  0  0  0  0  0
    4.6719   -1.3595   26.1609 C   0  0  0  0  0  0  0  0  0  0  0  0
    5.4516   -1.6664   25.0549 N   0  0  0  0  0  0  0  0  0  0  0  0
    9.0080    1.5804   21.0864 C   0  0  0  0  0  0  0  0  0  0  0  0
    8.4401    2.9063   21.1487 N   0  0  0  0  0  0  0  0  0  0  0  0
    9.9204    1.0962   21.6879 O   0  0  0  0  0  0  0  0  0  0  0  0
    8.4464    3.5066   18.1845 H   0  0  0  0  0  0  0  0  0  0  0  0
    9.7420    2.4397   18.6852 H   0  0  0  0  0  0  0  0  0  0  0  0
    8.7536    2.0947   17.2276 H   0  0  0  0  0  0  0  0  0  0  0  0
    7.0963    1.2963   18.3597 H   0  0  0  0  0  0  0  0  0  0  0  0
    8.8319    0.0850   19.4386 H   0  0  0  0  0  0  0  0  0  0  0  0
    6.8691   -0.9818   19.4805 H   0  0  0  0  0  0  0  0  0  0  0  0
    6.1902    0.1073   20.7921 H   0  0  0  0  0  0  0  0  0  0  0  0
    2.7662   -2.4811   23.7370 H   0  0  0  0  0  0  0  0  0  0  0  0
    1.4725   -2.2623   26.6978 H   0  0  0  0  0  0  0  0  0  0  0  0
    2.0578   -1.6352   28.9626 H   0  0  0  0  0  0  0  0  0  0  0  0
    4.3433   -0.8384   29.4970 H   0  0  0  0  0  0  0  0  0  0  0  0
    6.0697   -0.7371   27.7007 H   0  0  0  0  0  0  0  0  0  0  0  0
    6.4086   -1.9393   25.1900 H   0  0  0  0  0  0  0  0  0  0  0  0
    7.5773    2.9338   20.5629 H   0  0  0  0  0  0  0  0  0  0  0  0
    7.7268    3.0064   20.3918 H   0  0  0  0  0  0  0  0  0  0  0  0
  1  2  1  0
  2  3  1  0
  3  4  1  0
  4  5  1  0
  5  6  1  0
  6  7  2  0
  7  8  1  0
  8  9  2  0
  9 10  1  0
 10 11  2  0
 11 12  1  0
 12 13  2  0
 13 14  1  0
  3 15  1  0
 15 16  1  0
 15 17  2  0
 14  6  1  0
 13  8  1  0
  1 18  1  0
  1 19  1  0
  1 20  1  0
  2 21  1  0
  3 22  1  0
  4 23  1  0
  4 24  1  0
  7 25  1  0
  9 26  1  0
 10 27  1  0
 11 28  1  0
 12 29  1  0
 14 30  1  0
 16 31  1  0
 16 32  1  0
M  END
>  <Energy>  (902) 
443.07788783856893

>  <compound_id>  (902) 
81036

>  <target_id>  (902) 
1

>  <reference_id>  (902) 
76

>  <inspiration_ids>  (902) 
[40, 76]

>  <energy_score>  (902) 
368.20168139622245

>  <distance_score>  (902) 
7.289885414491073

>  <path>  (902) 
/opt/xchem-fragalysis-2/maxwin/BulkDock/SCRATCH/511024/C81036-P76/C81036-P76.minimised.mol

>  <scratch_subdir>  (902) 
/opt/xchem-fragalysis-2/maxwin/BulkDock/SCRATCH/511024/C81036-P76

>  <fragmenstein_runtime>  (902) 
3.9875829219818115

>  <fragmenstein_outcome>  (902) 
too moved

>  <fragmenstein_mode>  (902) 
expansion

>  <fragmenstein_error>  (902) 


$$$$
C81040-P40
     RDKit          3D

 34 35  0  0  0  0  0  0  0  0999 V2000
    8.3146    2.4410   17.5629 C   0  0  0  0  0  0  0  0  0  0  0  0
    7.8958    1.0139   17.9057 C   0  0  0  0  0  0  0  0  0  0  0  0
    6.6565    0.7814   17.2660 O   0  0  0  0  0  0  0  0  0  0  0  0
    7.8886    0.7845   19.4421 C   0  0  0  0  0  0  0  0  0  0  0  0
    6.8958   -0.4123   20.2391 C   0  0  0  0  0  0  0  0  0  0  0  0
    5.3524   -0.8966   21.3639 N   0  0  0  0  0  0  0  0  0  0  0  0
    4.9013   -1.4492   23.0594 C   0  0  0  0  0  0  0  0  0  0  0  0
    4.8360   -1.0991   24.6377 C   0  0  0  0  0  0  0  0  0  0  0  0
    5.0876   -2.2650   25.4715 C   0  0  0  0  0  0  0  0  0  0  0  0
    4.8278   -2.3687   26.8374 C   0  0  0  0  0  0  0  0  0  0  0  0
    4.2640   -1.3040   27.5010 C   0  0  0  0  0  0  0  0  0  0  0  0
    4.0244   -0.1514   26.7513 C   0  0  0  0  0  0  0  0  0  0  0  0
    3.4589    1.0208   27.1975 N   0  0  0  0  0  0  0  0  0  0  0  0
    3.3932    1.9264   26.1866 C   0  0  0  0  0  0  0  0  0  0  0  0
    3.9060    1.3248   25.0631 C   0  0  0  0  0  0  0  0  0  0  0  0
    4.3075   -0.0061   25.3761 C   0  0  0  0  0  0  0  0  0  0  0  0
    7.5643    3.1627   17.9032 H   0  0  0  0  0  0  0  0  0  0  0  0
    8.3964    2.5649   16.4775 H   0  0  0  0  0  0  0  0  0  0  0  0
    9.2743    2.6965   18.0161 H   0  0  0  0  0  0  0  0  0  0  0  0
    8.6195    0.3535   17.4287 H   0  0  0  0  0  0  0  0  0  0  0  0
    6.0858    0.2301   17.8403 H   0  0  0  0  0  0  0  0  0  0  0  0
    8.8749    0.4991   19.7424 H   0  0  0  0  0  0  0  0  0  0  0  0
    7.7426    1.7683   19.8850 H   0  0  0  0  0  0  0  0  0  0  0  0
    6.8839   -0.9476   19.3384 H   0  0  0  0  0  0  0  0  0  0  0  0
    6.2819    0.4263   20.0075 H   0  0  0  0  0  0  0  0  0  0  0  0
    5.4581   -1.8350   20.8936 H   0  0  0  0  0  0  0  0  0  0  0  0
    3.8812   -1.8306   23.0001 H   0  0  0  0  0  0  0  0  0  0  0  0
    5.5137   -2.3450   23.1210 H   0  0  0  0  0  0  0  0  0  0  0  0
    5.5002   -3.1656   25.0153 H   0  0  0  0  0  0  0  0  0  0  0  0
    5.0608   -3.2891   27.3639 H   0  0  0  0  0  0  0  0  0  0  0  0
    4.0325   -1.3565   28.5586 H   0  0  0  0  0  0  0  0  0  0  0  0
    3.1482    1.1793   28.1453 H   0  0  0  0  0  0  0  0  0  0  0  0
    2.9851    2.9156   26.3409 H   0  0  0  0  0  0  0  0  0  0  0  0
    3.9667    1.8033   24.0952 H   0  0  0  0  0  0  0  0  0  0  0  0
  1  2  1  0
  2  3  1  0
  2  4  1  0
  4  5  1  0
  5  6  1  0
  6  7  1  0
  7  8  1  0
  8  9  2  0
  9 10  1  0
 10 11  2  0
 11 12  1  0
 12 13  1  0
 13 14  1  0
 14 15  2  0
 15 16  1  0
 16  8  1  0
 16 12  2  0
  1 17  1  0
  1 18  1  0
  1 19  1  0
  2 20  1  0
  3 21  1  0
  4 22  1  0
  4 23  1  0
  5 24  1  0
  5 25  1  0
  6 26  1  0
  7 27  1  0
  7 28  1  0
  9 29  1  0
 10 30  1  0
 11 31  1  0
 13 32  1  0
 14 33  1  0
 15 34  1  0
M  END
>  <Energy>  (903) 
305.1455136046954

>  <compound_id>  (903) 
81040

>  <target_id>  (903) 
1

>  <reference_id>  (903) 
40

>  <inspiration_ids>  (903) 
[40, 76]

>  <energy_score>  (903) 
265.74444429815395

>  <distance_score>  (903) 
8.209663131663238

>  <path>  (903) 
/opt/xchem-fragalysis-2/maxwin/BulkDock/SCRATCH/511024/C81040-P40/C81040-P40.minimised.mol

>  <scratch_subdir>  (903) 
/opt/xchem-fragalysis-2/maxwin/BulkDock/SCRATCH/511024/C81040-P40

>  <fragmenstein_runtime>  (903) 
3.778560161590576

>  <fragmenstein_outcome>  (903) 
too moved

>  <fragmenstein_mode>  (903) 
expansion

>  <fragmenstein_error>  (903) 


$$$$
C81040-P76
     RDKit          3D

 34 35  0  0  0  0  0  0  0  0999 V2000
    0.0707   -5.2148   18.9608 C   0  0  0  0  0  0  0  0  0  0  0  0
    0.7190   -6.5510   18.7126 C   0  0  0  0  0  0  0  0  0  0  0  0
    2.0963   -6.2755   18.4223 O   0  0  0  0  0  0  0  0  0  0  0  0
    0.2713   -7.6673   19.8063 C   0  0  0  0  0  0  0  0  0  0  0  0
    0.5459   -7.5715   21.3943 C   0  0  0  0  0  0  0  0  0  0  0  0
   -0.4964   -8.0459   22.5518 N   0  0  0  0  0  0  0  0  0  0  0  0
   -0.0737   -7.4452   23.9897 C   0  0  0  0  0  0  0  0  0  0  0  0
   -0.6797   -7.4763   25.7261 C   0  0  0  0  0  0  0  0  0  0  0  0
   -1.2103   -6.2244   25.9735 C   0  0  0  0  0  0  0  0  0  0  0  0
   -1.0552   -5.5093   27.1983 C   0  0  0  0  0  0  0  0  0  0  0  0
   -0.6892   -6.0477   28.3851 C   0  0  0  0  0  0  0  0  0  0  0  0
   -0.6110   -7.3963   28.3167 C   0  0  0  0  0  0  0  0  0  0  0  0
   -0.6493   -8.2031   29.4364 N   0  0  0  0  0  0  0  0  0  0  0  0
   -0.5078   -9.4971   29.0946 C   0  0  0  0  0  0  0  0  0  0  0  0
   -0.3287   -9.4992   27.7492 C   0  0  0  0  0  0  0  0  0  0  0  0
   -0.4409   -8.1354   27.1171 C   0  0  0  0  0  0  0  0  0  0  0  0
   -1.0164   -5.2963   19.0384 H   0  0  0  0  0  0  0  0  0  0  0  0
    0.3016   -4.5209   18.1448 H   0  0  0  0  0  0  0  0  0  0  0  0
    0.4829   -4.7857   19.8749 H   0  0  0  0  0  0  0  0  0  0  0  0
    0.3031   -6.9217   17.7655 H   0  0  0  0  0  0  0  0  0  0  0  0
    2.4069   -6.9658   17.8135 H   0  0  0  0  0  0  0  0  0  0  0  0
   -0.8176   -7.7668   19.6959 H   0  0  0  0  0  0  0  0  0  0  0  0
    0.6755   -8.6322   19.4715 H   0  0  0  0  0  0  0  0  0  0  0  0
    0.8171   -6.5385   21.5965 H   0  0  0  0  0  0  0  0  0  0  0  0
    1.3562   -8.2561   21.5868 H   0  0  0  0  0  0  0  0  0  0  0  0
   -0.2625   -9.0431   22.5883 H   0  0  0  0  0  0  0  0  0  0  0  0
    0.9290   -7.7948   23.9743 H   0  0  0  0  0  0  0  0  0  0  0  0
    0.0113   -6.3705   23.8020 H   0  0  0  0  0  0  0  0  0  0  0  0
   -1.6239   -5.7811   25.0754 H   0  0  0  0  0  0  0  0  0  0  0  0
   -1.2360   -4.4463   27.3166 H   0  0  0  0  0  0  0  0  0  0  0  0
   -0.6488   -5.4790   29.3048 H   0  0  0  0  0  0  0  0  0  0  0  0
   -0.5890   -7.8399   30.3784 H   0  0  0  0  0  0  0  0  0  0  0  0
   -0.5624  -10.3312   29.7696 H   0  0  0  0  0  0  0  0  0  0  0  0
   -0.3055  -10.5023   27.3380 H   0  0  0  0  0  0  0  0  0  0  0  0
  1  2  1  0
  2  3  1  0
  2  4  1  0
  4  5  1  0
  5  6  1  0
  6  7  1  0
  7  8  1  0
  8  9  2  0
  9 10  1  0
 10 11  2  0
 11 12  1  0
 12 13  1  0
 13 14  1  0
 14 15  2  0
 15 16  1  0
 16  8  1  0
 16 12  2  0
  1 17  1  0
  1 18  1  0
  1 19  1  0
  2 20  1  0
  3 21  1  0
  4 22  1  0
  4 23  1  0
  5 24  1  0
  5 25  1  0
  6 26  1  0
  7 27  1  0
  7 28  1  0
  9 29  1  0
 10 30  1  0
 11 31  1  0
 13 32  1  0
 14 33  1  0
 15 34  1  0
M  END
>  <Energy>  (904) 
175.56890022772623

>  <compound_id>  (904) 
81040

>  <target_id>  (904) 
1

>  <reference_id>  (904) 
76

>  <inspiration_ids>  (904) 
[40, 76]

>  <energy_score>  (904) 
136.16783092118493

>  <distance_score>  (904) 
11.480912653250037

>  <path>  (904) 
/opt/xchem-fragalysis-2/maxwin/BulkDock/SCRATCH/511024/C81040-P76/C81040-P76.minimised.mol

>  <scratch_subdir>  (904) 
/opt/xchem-fragalysis-2/maxwin/BulkDock/SCRATCH/511024/C81040-P76

>  <fragmenstein_runtime>  (904) 
3.6772987842559814

>  <fragmenstein_outcome>  (904) 
too moved

>  <fragmenstein_mode>  (904) 
expansion

>  <fragmenstein_error>  (904) 


$$$$
C81047-P40
     RDKit          3D

 40 41  0  0  0  0  0  0  0  0999 V2000
   11.0248    1.0701   24.6419 C   0  0  0  0  0  0  0  0  0  0  0  0
   10.1361    0.2771   25.6075 C   0  0  0  0  0  0  0  0  0  0  0  0
   10.5692   -1.1750   25.8875 C   0  0  0  0  0  0  0  0  0  0  0  0
   10.7668   -1.9424   24.7039 O   0  0  0  0  0  0  0  0  0  0  0  0
    9.6665   -1.9583   27.0254 C   0  0  0  0  0  0  0  0  0  0  0  0
   10.1945   -3.4129   27.1763 C   0  0  0  0  0  0  0  0  0  0  0  0
   11.6762   -3.5118   27.5191 C   0  0  0  0  0  0  0  0  0  0  0  0
    8.1599   -2.0555   26.9267 N   0  0  0  0  0  0  0  0  0  0  0  0
    7.4520   -2.2509   28.2110 C   0  0  0  0  0  0  0  0  0  0  0  0
    5.9869   -2.6759   28.1189 C   0  0  0  0  0  0  0  0  0  0  0  0
    4.9584   -1.7531   28.3632 C   0  0  0  0  0  0  0  0  0  0  0  0
    3.6096   -2.1372   28.4218 C   0  0  0  0  0  0  0  0  0  0  0  0
    3.3118   -3.4915   28.2452 C   0  0  0  0  0  0  0  0  0  0  0  0
    2.1026   -4.1466   28.2894 N   0  0  0  0  0  0  0  0  0  0  0  0
    2.2911   -5.4920   28.1030 C   0  0  0  0  0  0  0  0  0  0  0  0
    3.6310   -5.7021   27.8681 C   0  0  0  0  0  0  0  0  0  0  0  0
    4.2927   -4.4452   27.9787 C   0  0  0  0  0  0  0  0  0  0  0  0
    5.6414   -4.0262   27.8953 C   0  0  0  0  0  0  0  0  0  0  0  0
   10.6482    1.0029   23.6210 H   0  0  0  0  0  0  0  0  0  0  0  0
   10.9942    2.1328   24.9068 H   0  0  0  0  0  0  0  0  0  0  0  0
   12.0673    0.7425   24.6804 H   0  0  0  0  0  0  0  0  0  0  0  0
   10.1289    0.8068   26.5690 H   0  0  0  0  0  0  0  0  0  0  0  0
    9.1050    0.2977   25.2515 H   0  0  0  0  0  0  0  0  0  0  0  0
   11.5685   -1.0906   26.3341 H   0  0  0  0  0  0  0  0  0  0  0  0
   11.2350   -1.4059   24.0303 H   0  0  0  0  0  0  0  0  0  0  0  0
    9.8729   -1.4039   27.9515 H   0  0  0  0  0  0  0  0  0  0  0  0
    9.6538   -3.9363   27.9722 H   0  0  0  0  0  0  0  0  0  0  0  0
   10.0017   -3.9776   26.2554 H   0  0  0  0  0  0  0  0  0  0  0  0
   12.3099   -3.2046   26.6827 H   0  0  0  0  0  0  0  0  0  0  0  0
   11.9350   -4.5491   27.7561 H   0  0  0  0  0  0  0  0  0  0  0  0
   11.9200   -2.8956   28.3900 H   0  0  0  0  0  0  0  0  0  0  0  0
    7.7725   -1.2709   26.4140 H   0  0  0  0  0  0  0  0  0  0  0  0
    7.9571   -3.0030   28.8271 H   0  0  0  0  0  0  0  0  0  0  0  0
    7.5147   -1.3161   28.7826 H   0  0  0  0  0  0  0  0  0  0  0  0
    5.2061   -0.7068   28.5337 H   0  0  0  0  0  0  0  0  0  0  0  0
    2.8334   -1.4046   28.6192 H   0  0  0  0  0  0  0  0  0  0  0  0
    1.2164   -3.6881   28.4604 H   0  0  0  0  0  0  0  0  0  0  0  0
    1.4587   -6.1746   28.1509 H   0  0  0  0  0  0  0  0  0  0  0  0
    4.1064   -6.6526   27.6636 H   0  0  0  0  0  0  0  0  0  0  0  0
    6.4249   -4.7519   27.6878 H   0  0  0  0  0  0  0  0  0  0  0  0
  1  2  1  0
  2  3  1  0
  3  4  1  0
  3  5  1  0
  5  6  1  0
  6  7  1  0
  5  8  1  0
  8  9  1  0
  9 10  1  0
 10 11  2  0
 11 12  1  0
 12 13  2  0
 13 14  1  0
 14 15  1  0
 15 16  2  0
 16 17  1  0
 17 18  2  0
 18 10  1  0
 17 13  1  0
  1 19  1  0
  1 20  1  0
  1 21  1  0
  2 22  1  0
  2 23  1  0
  3 24  1  0
  4 25  1  0
  5 26  1  0
  6 27  1  0
  6 28  1  0
  7 29  1  0
  7 30  1  0
  7 31  1  0
  8 32  1  0
  9 33  1  0
  9 34  1  0
 11 35  1  0
 12 36  1  0
 14 37  1  0
 15 38  1  0
 16 39  1  0
 18 40  1  0
M  END
>  <Energy>  (905) 
54.424473493513545

>  <compound_id>  (905) 
81047

>  <target_id>  (905) 
1

>  <reference_id>  (905) 
40

>  <inspiration_ids>  (905) 
[40, 76]

>  <energy_score>  (905) 
-9.64305445846378

>  <distance_score>  (905) 
8.887110838793841

>  <path>  (905) 
/opt/xchem-fragalysis-2/maxwin/BulkDock/SCRATCH/511024/C81047-P40/C81047-P40.minimised.mol

>  <scratch_subdir>  (905) 
/opt/xchem-fragalysis-2/maxwin/BulkDock/SCRATCH/511024/C81047-P40

>  <fragmenstein_runtime>  (905) 
4.843557596206665

>  <fragmenstein_outcome>  (905) 
too moved

>  <fragmenstein_mode>  (905) 
expansion

>  <fragmenstein_error>  (905) 


$$$$
C81047-P76
     RDKit          3D

 40 41  0  0  0  0  0  0  0  0999 V2000
   11.8088    1.2599   23.5811 C   0  0  0  0  0  0  0  0  0  0  0  0
   11.4660    0.3022   24.7246 C   0  0  0  0  0  0  0  0  0  0  0  0
   10.2368    0.6831   25.6085 C   0  0  0  0  0  0  0  0  0  0  0  0
    9.3625    1.5279   24.8627 O   0  0  0  0  0  0  0  0  0  0  0  0
    9.4161   -0.5674   26.2590 C   0  0  0  0  0  0  0  0  0  0  0  0
   10.3803   -1.4872   27.0522 C   0  0  0  0  0  0  0  0  0  0  0  0
   10.9936   -0.8605   28.2977 C   0  0  0  0  0  0  0  0  0  0  0  0
    8.1479   -0.2420   27.0770 N   0  0  0  0  0  0  0  0  0  0  0  0
    7.2136   -1.4149   27.1002 C   0  0  0  0  0  0  0  0  0  0  0  0
    6.0052   -1.4182   28.0435 C   0  0  0  0  0  0  0  0  0  0  0  0
    6.1556   -1.6171   29.4219 C   0  0  0  0  0  0  0  0  0  0  0  0
    5.0700   -1.9767   30.2447 C   0  0  0  0  0  0  0  0  0  0  0  0
    3.8216   -2.1715   29.6405 C   0  0  0  0  0  0  0  0  0  0  0  0
    2.6239   -2.6071   30.1640 N   0  0  0  0  0  0  0  0  0  0  0  0
    1.6759   -2.6902   29.1779 C   0  0  0  0  0  0  0  0  0  0  0  0
    2.2542   -2.2597   28.0066 C   0  0  0  0  0  0  0  0  0  0  0  0
    3.6115   -1.9370   28.2850 C   0  0  0  0  0  0  0  0  0  0  0  0
    4.7036   -1.5151   27.4957 C   0  0  0  0  0  0  0  0  0  0  0  0
   12.7296    0.9387   23.0842 H   0  0  0  0  0  0  0  0  0  0  0  0
   11.0111    1.2791   22.8321 H   0  0  0  0  0  0  0  0  0  0  0  0
   11.9612    2.2756   23.9586 H   0  0  0  0  0  0  0  0  0  0  0  0
   11.3363   -0.6968   24.3091 H   0  0  0  0  0  0  0  0  0  0  0  0
   12.3387    0.2173   25.3849 H   0  0  0  0  0  0  0  0  0  0  0  0
   10.5998    1.3051   26.4350 H   0  0  0  0  0  0  0  0  0  0  0  0
    8.5605    1.5742   25.4203 H   0  0  0  0  0  0  0  0  0  0  0  0
    9.0561   -1.1318   25.3929 H   0  0  0  0  0  0  0  0  0  0  0  0
    9.8698   -2.4098   27.3479 H   0  0  0  0  0  0  0  0  0  0  0  0
   11.1926   -1.8168   26.3942 H   0  0  0  0  0  0  0  0  0  0  0  0
   11.6647   -1.5792   28.7801 H   0  0  0  0  0  0  0  0  0  0  0  0
   10.2316   -0.5822   29.0308 H   0  0  0  0  0  0  0  0  0  0  0  0
   11.5845    0.0268   28.0554 H   0  0  0  0  0  0  0  0  0  0  0  0
    8.4181   -0.0430   28.0376 H   0  0  0  0  0  0  0  0  0  0  0  0
    6.8504   -1.5188   26.0755 H   0  0  0  0  0  0  0  0  0  0  0  0
    7.7659   -2.3335   27.3256 H   0  0  0  0  0  0  0  0  0  0  0  0
    7.1478   -1.5618   29.8650 H   0  0  0  0  0  0  0  0  0  0  0  0
    5.2186   -2.1549   31.3047 H   0  0  0  0  0  0  0  0  0  0  0  0
    2.4753   -2.8461   31.1345 H   0  0  0  0  0  0  0  0  0  0  0  0
    0.6721   -3.0283   29.3957 H   0  0  0  0  0  0  0  0  0  0  0  0
    1.7676   -2.1973   27.0420 H   0  0  0  0  0  0  0  0  0  0  0  0
    4.5575   -1.4037   26.4228 H   0  0  0  0  0  0  0  0  0  0  0  0
  1  2  1  0
  2  3  1  0
  3  4  1  0
  3  5  1  0
  5  6  1  0
  6  7  1  0
  5  8  1  0
  8  9  1  0
  9 10  1  0
 10 11  2  0
 11 12  1  0
 12 13  2  0
 13 14  1  0
 14 15  1  0
 15 16  2  0
 16 17  1  0
 17 18  2  0
 18 10  1  0
 17 13  1  0
  1 19  1  0
  1 20  1  0
  1 21  1  0
  2 22  1  0
  2 23  1  0
  3 24  1  0
  4 25  1  0
  5 26  1  0
  6 27  1  0
  6 28  1  0
  7 29  1  0
  7 30  1  0
  7 31  1  0
  8 32  1  0
  9 33  1  0
  9 34  1  0
 11 35  1  0
 12 36  1  0
 14 37  1  0
 15 38  1  0
 16 39  1  0
 18 40  1  0
M  END
>  <Energy>  (906) 
52.089924980442049

>  <compound_id>  (906) 
81047

>  <target_id>  (906) 
1

>  <reference_id>  (906) 
76

>  <inspiration_ids>  (906) 
[40, 76]

>  <energy_score>  (906) 
-11.977602971534196

>  <distance_score>  (906) 
8.90134663696525

>  <path>  (906) 
/opt/xchem-fragalysis-2/maxwin/BulkDock/SCRATCH/511024/C81047-P76/C81047-P76.minimised.mol

>  <scratch_subdir>  (906) 
/opt/xchem-fragalysis-2/maxwin/BulkDock/SCRATCH/511024/C81047-P76

>  <fragmenstein_runtime>  (906) 
6.476996421813965

>  <fragmenstein_outcome>  (906) 
too moved

>  <fragmenstein_mode>  (906) 
expansion

>  <fragmenstein_error>  (906) 


$$$$
C81048-P40
     RDKit          3D

 40 41  0  0  0  0  0  0  0  0999 V2000
   -1.5491   -2.6839   37.4297 C   0  0  0  0  0  0  0  0  0  0  0  0
   -1.1399   -3.1917   36.1537 N   0  0  0  0  0  0  0  0  0  0  0  0
    0.2440   -3.1562   35.4519 C   0  0  0  0  0  0  0  0  0  0  0  0
    1.2782   -2.7768   35.8381 O   0  0  0  0  0  0  0  0  0  0  0  0
    0.0671   -3.8243   34.0960 C   0  0  0  0  0  0  0  0  0  0  0  0
    0.2716   -5.3447   34.2270 C   0  0  0  0  0  0  0  0  0  0  0  0
    1.6965   -5.7549   33.8366 C   0  0  0  0  0  0  0  0  0  0  0  0
   -0.8458   -6.0932   33.5780 N   0  0  0  0  0  0  0  0  0  0  0  0
   -1.2408   -7.1732   34.5084 C   0  0  0  0  0  0  0  0  0  0  0  0
   -0.6104   -6.7291   32.2677 C   0  0  0  0  0  0  0  0  0  0  0  0
   -0.1223   -5.9058   31.0953 C   0  0  0  0  0  0  0  0  0  0  0  0
   -0.3183   -4.5334   30.9544 C   0  0  0  0  0  0  0  0  0  0  0  0
    0.2977   -3.8006   29.9328 C   0  0  0  0  0  0  0  0  0  0  0  0
    1.1235   -4.4941   29.0471 C   0  0  0  0  0  0  0  0  0  0  0  0
    1.9111   -4.0264   28.0215 N   0  0  0  0  0  0  0  0  0  0  0  0
    2.5532   -5.0705   27.4103 C   0  0  0  0  0  0  0  0  0  0  0  0
    2.1789   -6.2267   28.0540 C   0  0  0  0  0  0  0  0  0  0  0  0
    1.2692   -5.8767   29.0873 C   0  0  0  0  0  0  0  0  0  0  0  0
    0.5662   -6.5906   30.0748 C   0  0  0  0  0  0  0  0  0  0  0  0
   -1.8456   -3.5258   38.0590 H   0  0  0  0  0  0  0  0  0  0  0  0
   -2.4004   -2.0161   37.2823 H   0  0  0  0  0  0  0  0  0  0  0  0
   -0.7197   -2.1449   37.8923 H   0  0  0  0  0  0  0  0  0  0  0  0
   -1.8152   -3.6667   35.5529 H   0  0  0  0  0  0  0  0  0  0  0  0
    0.7783   -3.3701   33.3965 H   0  0  0  0  0  0  0  0  0  0  0  0
   -0.9326   -3.5700   33.7281 H   0  0  0  0  0  0  0  0  0  0  0  0
    0.2228   -5.5570   35.3053 H   0  0  0  0  0  0  0  0  0  0  0  0
    2.4249   -5.2479   34.4796 H   0  0  0  0  0  0  0  0  0  0  0  0
    1.8434   -6.8304   33.9722 H   0  0  0  0  0  0  0  0  0  0  0  0
    1.9446   -5.4933   32.8054 H   0  0  0  0  0  0  0  0  0  0  0  0
   -1.6102   -6.7478   35.4467 H   0  0  0  0  0  0  0  0  0  0  0  0
   -2.0513   -7.7812   34.1002 H   0  0  0  0  0  0  0  0  0  0  0  0
   -0.4034   -7.8432   34.7374 H   0  0  0  0  0  0  0  0  0  0  0  0
   -1.5518   -7.1841   31.9319 H   0  0  0  0  0  0  0  0  0  0  0  0
    0.0960   -7.5582   32.4063 H   0  0  0  0  0  0  0  0  0  0  0  0
   -0.9542   -3.9968   31.6500 H   0  0  0  0  0  0  0  0  0  0  0  0
    0.1582   -2.7258   29.8586 H   0  0  0  0  0  0  0  0  0  0  0  0
    2.0115   -3.0476   27.7802 H   0  0  0  0  0  0  0  0  0  0  0  0
    3.2464   -4.8960   26.5963 H   0  0  0  0  0  0  0  0  0  0  0  0
    2.5569   -7.2037   27.7975 H   0  0  0  0  0  0  0  0  0  0  0  0
    0.6253   -7.6743   30.1039 H   0  0  0  0  0  0  0  0  0  0  0  0
  1  2  1  0
  2  3  1  0
  3  4  2  0
  3  5  1  0
  5  6  1  0
  6  7  1  0
  6  8  1  0
  8  9  1  0
  8 10  1  0
 10 11  1  0
 11 12  2  0
 12 13  1  0
 13 14  2  0
 14 15  1  0
 15 16  1  0
 16 17  2  0
 17 18  1  0
 18 19  2  0
 19 11  1  0
 18 14  1  0
  1 20  1  0
  1 21  1  0
  1 22  1  0
  2 23  1  0
  5 24  1  0
  5 25  1  0
  6 26  1  0
  7 27  1  0
  7 28  1  0
  7 29  1  0
  9 30  1  0
  9 31  1  0
  9 32  1  0
 10 33  1  0
 10 34  1  0
 12 35  1  0
 13 36  1  0
 15 37  1  0
 16 38  1  0
 17 39  1  0
 19 40  1  0
M  END
>  <Energy>  (907) 
36.062409446261384

>  <compound_id>  (907) 
81048

>  <target_id>  (907) 
1

>  <reference_id>  (907) 
40

>  <inspiration_ids>  (907) 
[40, 76]

>  <energy_score>  (907) 
-5.842248973893106

>  <distance_score>  (907) 
15.885716343919619

>  <path>  (907) 
/opt/xchem-fragalysis-2/maxwin/BulkDock/SCRATCH/511024/C81048-P40/C81048-P40.minimised.mol

>  <scratch_subdir>  (907) 
/opt/xchem-fragalysis-2/maxwin/BulkDock/SCRATCH/511024/C81048-P40

>  <fragmenstein_runtime>  (907) 
5.713289976119995

>  <fragmenstein_outcome>  (907) 
too moved

>  <fragmenstein_mode>  (907) 
expansion

>  <fragmenstein_error>  (907) 


$$$$
C81048-P76
     RDKit          3D

 40 41  0  0  0  0  0  0  0  0999 V2000
    8.1494   -4.7830   20.0549 C   0  0  0  0  0  0  0  0  0  0  0  0
    7.5869   -3.7166   21.1645 N   0  0  0  0  0  0  0  0  0  0  0  0
    6.0094   -2.8572   21.2682 C   0  0  0  0  0  0  0  0  0  0  0  0
    5.1847   -2.9155   20.4235 O   0  0  0  0  0  0  0  0  0  0  0  0
    5.4425   -1.9041   22.8266 C   0  0  0  0  0  0  0  0  0  0  0  0
    5.3413   -1.7860   24.7018 C   0  0  0  0  0  0  0  0  0  0  0  0
    6.7385   -1.6717   25.6966 C   0  0  0  0  0  0  0  0  0  0  0  0
    4.2480   -0.9982   25.4926 N   0  0  0  0  0  0  0  0  0  0  0  0
    4.5968    0.1140   26.3576 C   0  0  0  0  0  0  0  0  0  0  0  0
    3.1198   -1.7767   26.0525 C   0  0  0  0  0  0  0  0  0  0  0  0
    2.8953   -2.1209   27.5310 C   0  0  0  0  0  0  0  0  0  0  0  0
    1.5576   -2.2880   27.9531 C   0  0  0  0  0  0  0  0  0  0  0  0
    1.1990   -2.8889   29.1645 C   0  0  0  0  0  0  0  0  0  0  0  0
    2.2395   -3.3499   29.9634 C   0  0  0  0  0  0  0  0  0  0  0  0
    2.2071   -4.0692   31.1346 N   0  0  0  0  0  0  0  0  0  0  0  0
    3.4829   -4.3315   31.5575 C   0  0  0  0  0  0  0  0  0  0  0  0
    4.3523   -3.7553   30.6614 C   0  0  0  0  0  0  0  0  0  0  0  0
    3.5785   -3.1373   29.6408 C   0  0  0  0  0  0  0  0  0  0  0  0
    3.9053   -2.4832   28.4269 C   0  0  0  0  0  0  0  0  0  0  0  0
    8.3459   -5.7267   20.5769 H   0  0  0  0  0  0  0  0  0  0  0  0
    9.0167   -4.4404   19.4825 H   0  0  0  0  0  0  0  0  0  0  0  0
    7.3331   -5.0508   19.3736 H   0  0  0  0  0  0  0  0  0  0  0  0
    8.0598   -3.5997   21.9830 H   0  0  0  0  0  0  0  0  0  0  0  0
    4.9785   -1.1876   22.1600 H   0  0  0  0  0  0  0  0  0  0  0  0
    4.3921   -2.1636   23.0237 H   0  0  0  0  0  0  0  0  0  0  0  0
    4.8349   -2.7255   24.7759 H   0  0  0  0  0  0  0  0  0  0  0  0
    6.4537   -1.7606   26.7518 H   0  0  0  0  0  0  0  0  0  0  0  0
    7.3112   -0.7360   25.7056 H   0  0  0  0  0  0  0  0  0  0  0  0
    7.4817   -2.4547   25.5128 H   0  0  0  0  0  0  0  0  0  0  0  0
    5.3028    0.8104   25.9142 H   0  0  0  0  0  0  0  0  0  0  0  0
    5.0239   -0.1955   27.3148 H   0  0  0  0  0  0  0  0  0  0  0  0
    3.7047    0.7131   26.5783 H   0  0  0  0  0  0  0  0  0  0  0  0
    2.9987   -2.7008   25.4872 H   0  0  0  0  0  0  0  0  0  0  0  0
    2.2766   -1.1382   25.8120 H   0  0  0  0  0  0  0  0  0  0  0  0
    0.7522   -1.9849   27.2880 H   0  0  0  0  0  0  0  0  0  0  0  0
    0.1577   -3.0353   29.4279 H   0  0  0  0  0  0  0  0  0  0  0  0
    1.3657   -4.3798   31.6026 H   0  0  0  0  0  0  0  0  0  0  0  0
    3.6534   -4.8939   32.4661 H   0  0  0  0  0  0  0  0  0  0  0  0
    5.4322   -3.7831   30.7184 H   0  0  0  0  0  0  0  0  0  0  0  0
    4.9465   -2.3987   28.1391 H   0  0  0  0  0  0  0  0  0  0  0  0
  1  2  1  0
  2  3  1  0
  3  4  2  0
  3  5  1  0
  5  6  1  0
  6  7  1  0
  6  8  1  0
  8  9  1  0
  8 10  1  0
 10 11  1  0
 11 12  2  0
 12 13  1  0
 13 14  2  0
 14 15  1  0
 15 16  1  0
 16 17  2  0
 17 18  1  0
 18 19  2  0
 19 11  1  0
 18 14  1  0
  1 20  1  0
  1 21  1  0
  1 22  1  0
  2 23  1  0
  5 24  1  0
  5 25  1  0
  6 26  1  0
  7 27  1  0
  7 28  1  0
  7 29  1  0
  9 30  1  0
  9 31  1  0
  9 32  1  0
 10 33  1  0
 10 34  1  0
 12 35  1  0
 13 36  1  0
 15 37  1  0
 16 38  1  0
 17 39  1  0
 19 40  1  0
M  END
>  <Energy>  (908) 
258.13031346721851

>  <compound_id>  (908) 
81048

>  <target_id>  (908) 
1

>  <reference_id>  (908) 
76

>  <inspiration_ids>  (908) 
[40, 76]

>  <energy_score>  (908) 
202.82111537137467

>  <distance_score>  (908) 
8.558506857203362

>  <path>  (908) 
/opt/xchem-fragalysis-2/maxwin/BulkDock/SCRATCH/511024/C81048-P76/C81048-P76.minimised.mol

>  <scratch_subdir>  (908) 
/opt/xchem-fragalysis-2/maxwin/BulkDock/SCRATCH/511024/C81048-P76

>  <fragmenstein_runtime>  (908) 
6.418262720108032

>  <fragmenstein_outcome>  (908) 
too moved

>  <fragmenstein_mode>  (908) 
expansion

>  <fragmenstein_error>  (908) 


$$$$
C81049-P40
     RDKit          3D

 34 35  0  0  0  0  0  0  0  0999 V2000
    5.7353   -0.6533   26.6612 C   0  0  0  0  0  0  0  0  0  0  0  0
    5.2359   -1.5858   25.5389 C   0  0  0  0  0  0  0  0  0  0  0  0
    4.7735   -0.7411   24.3839 N   0  0  0  0  0  0  0  0  0  0  0  0
    4.9905   -1.2603   22.8464 C   0  0  0  0  0  0  0  0  0  0  0  0
    5.8477   -0.9466   20.9924 C   0  0  0  0  0  0  0  0  0  0  0  0
    7.2107   -1.4141   20.7352 O   0  0  0  0  0  0  0  0  0  0  0  0
    6.9637    0.2318   19.7409 C   0  0  0  0  0  0  0  0  0  0  0  0
    7.3221    1.5273   19.9123 F   0  0  0  0  0  0  0  0  0  0  0  0
    8.3167   -0.2233   19.6290 F   0  0  0  0  0  0  0  0  0  0  0  0
    6.7164    0.0269   18.4235 F   0  0  0  0  0  0  0  0  0  0  0  0
    4.2747   -2.5706   26.1821 C   0  0  0  0  0  0  0  0  0  0  0  0
    4.2822   -3.9584   26.1917 C   0  0  0  0  0  0  0  0  0  0  0  0
    3.3161   -4.4195   27.1314 C   0  0  0  0  0  0  0  0  0  0  0  0
    2.9011   -5.6906   27.5753 C   0  0  0  0  0  0  0  0  0  0  0  0
    1.9013   -5.7784   28.5525 C   0  0  0  0  0  0  0  0  0  0  0  0
    1.3195   -4.6299   29.0866 C   0  0  0  0  0  0  0  0  0  0  0  0
    1.7187   -3.3608   28.6607 C   0  0  0  0  0  0  0  0  0  0  0  0
    2.7230   -3.2895   27.6875 C   0  0  0  0  0  0  0  0  0  0  0  0
    3.3033   -2.1910   27.0885 N   0  0  0  0  0  0  0  0  0  0  0  0
    6.5676   -0.0361   26.3021 H   0  0  0  0  0  0  0  0  0  0  0  0
    4.9517    0.0283   27.0118 H   0  0  0  0  0  0  0  0  0  0  0  0
    6.1027   -1.2222   27.5235 H   0  0  0  0  0  0  0  0  0  0  0  0
    6.1061   -2.1617   25.2359 H   0  0  0  0  0  0  0  0  0  0  0  0
    5.1198    0.2090   24.4337 H   0  0  0  0  0  0  0  0  0  0  0  0
    3.9955   -1.6879   22.8442 H   0  0  0  0  0  0  0  0  0  0  0  0
    5.4624   -2.2111   23.1442 H   0  0  0  0  0  0  0  0  0  0  0  0
    5.5489   -2.0172   20.6897 H   0  0  0  0  0  0  0  0  0  0  0  0
    6.9077   -1.5551   19.8012 H   0  0  0  0  0  0  0  0  0  0  0  0
    4.9648   -4.5728   25.6161 H   0  0  0  0  0  0  0  0  0  0  0  0
    3.3612   -6.5840   27.1637 H   0  0  0  0  0  0  0  0  0  0  0  0
    1.5690   -6.7501   28.8989 H   0  0  0  0  0  0  0  0  0  0  0  0
    0.5416   -4.7123   29.8421 H   0  0  0  0  0  0  0  0  0  0  0  0
    1.2607   -2.4639   29.0666 H   0  0  0  0  0  0  0  0  0  0  0  0
    3.0492   -1.2326   27.2848 H   0  0  0  0  0  0  0  0  0  0  0  0
  1  2  1  0
  2  3  1  0
  3  4  1  0
  4  5  1  0
  5  6  1  0
  5  7  1  0
  7  8  1  0
  7  9  1  0
  7 10  1  0
  2 11  1  0
 11 12  2  0
 12 13  1  0
 13 14  2  0
 14 15  1  0
 15 16  2  0
 16 17  1  0
 17 18  2  0
 18 19  1  0
 19 11  1  0
 18 13  1  0
  1 20  1  0
  1 21  1  0
  1 22  1  0
  2 23  1  0
  3 24  1  0
  4 25  1  0
  4 26  1  0
  5 27  1  0
  6 28  1  0
 12 29  1  0
 14 30  1  0
 15 31  1  0
 16 32  1  0
 17 33  1  0
 19 34  1  0
M  END
>  <Energy>  (909) 
431.79949331699169

>  <compound_id>  (909) 
81049

>  <target_id>  (909) 
1

>  <reference_id>  (909) 
40

>  <inspiration_ids>  (909) 
[40, 76]

>  <energy_score>  (909) 
337.49035474054904

>  <distance_score>  (909) 
7.844162773930619

>  <path>  (909) 
/opt/xchem-fragalysis-2/maxwin/BulkDock/SCRATCH/511024/C81049-P40/C81049-P40.minimised.mol

>  <scratch_subdir>  (909) 
/opt/xchem-fragalysis-2/maxwin/BulkDock/SCRATCH/511024/C81049-P40

>  <fragmenstein_runtime>  (909) 
5.910321474075317

>  <fragmenstein_outcome>  (909) 
too moved

>  <fragmenstein_mode>  (909) 
expansion

>  <fragmenstein_error>  (909) 


$$$$
C81049-P76
     RDKit          3D

 34 35  0  0  0  0  0  0  0  0999 V2000
    8.3892   -2.4229   27.0182 C   0  0  0  0  0  0  0  0  0  0  0  0
    7.9787   -1.0202   27.4786 C   0  0  0  0  0  0  0  0  0  0  0  0
    8.2925    0.0970   26.4949 N   0  0  0  0  0  0  0  0  0  0  0  0
    9.6382   -0.0394   25.7442 C   0  0  0  0  0  0  0  0  0  0  0  0
   10.3171    1.2008   24.8996 C   0  0  0  0  0  0  0  0  0  0  0  0
    9.3100    2.1402   24.4746 O   0  0  0  0  0  0  0  0  0  0  0  0
   11.2774    0.8935   23.6808 C   0  0  0  0  0  0  0  0  0  0  0  0
   12.1594   -0.0832   23.9613 F   0  0  0  0  0  0  0  0  0  0  0  0
   10.6135    0.5623   22.5512 F   0  0  0  0  0  0  0  0  0  0  0  0
   12.0146    1.9884   23.3437 F   0  0  0  0  0  0  0  0  0  0  0  0
    6.5301   -1.1092   27.9555 C   0  0  0  0  0  0  0  0  0  0  0  0
    6.0398   -1.4566   29.2119 C   0  0  0  0  0  0  0  0  0  0  0  0
    4.6595   -1.7956   29.0959 C   0  0  0  0  0  0  0  0  0  0  0  0
    3.6907   -2.3280   29.9737 C   0  0  0  0  0  0  0  0  0  0  0  0
    2.3951   -2.5826   29.5042 C   0  0  0  0  0  0  0  0  0  0  0  0
    2.0570   -2.3052   28.1840 C   0  0  0  0  0  0  0  0  0  0  0  0
    3.0049   -1.7858   27.2945 C   0  0  0  0  0  0  0  0  0  0  0  0
    4.2991   -1.5464   27.7771 C   0  0  0  0  0  0  0  0  0  0  0  0
    5.4354   -1.1147   27.1137 N   0  0  0  0  0  0  0  0  0  0  0  0
    8.0333   -3.2058   27.6968 H   0  0  0  0  0  0  0  0  0  0  0  0
    9.4794   -2.5160   26.9672 H   0  0  0  0  0  0  0  0  0  0  0  0
    8.0001   -2.6200   26.0184 H   0  0  0  0  0  0  0  0  0  0  0  0
    8.5834   -0.7959   28.3687 H   0  0  0  0  0  0  0  0  0  0  0  0
    8.3080    0.9511   27.0530 H   0  0  0  0  0  0  0  0  0  0  0  0
    9.5126   -0.8756   25.0645 H   0  0  0  0  0  0  0  0  0  0  0  0
   10.3983   -0.3434   26.4748 H   0  0  0  0  0  0  0  0  0  0  0  0
   10.9175    1.7449   25.6393 H   0  0  0  0  0  0  0  0  0  0  0  0
    8.6015    2.0723   25.1401 H   0  0  0  0  0  0  0  0  0  0  0  0
    6.6459   -1.5796   30.0995 H   0  0  0  0  0  0  0  0  0  0  0  0
    3.9474   -2.5409   31.0067 H   0  0  0  0  0  0  0  0  0  0  0  0
    1.6478   -2.9889   30.1806 H   0  0  0  0  0  0  0  0  0  0  0  0
    1.0488   -2.4973   27.8247 H   0  0  0  0  0  0  0  0  0  0  0  0
    2.7508   -1.5999   26.2538 H   0  0  0  0  0  0  0  0  0  0  0  0
    5.4848   -1.0238   26.1097 H   0  0  0  0  0  0  0  0  0  0  0  0
  1  2  1  0
  2  3  1  0
  3  4  1  0
  4  5  1  0
  5  6  1  0
  5  7  1  0
  7  8  1  0
  7  9  1  0
  7 10  1  0
  2 11  1  0
 11 12  2  0
 12 13  1  0
 13 14  2  0
 14 15  1  0
 15 16  2  0
 16 17  1  0
 17 18  2  0
 18 19  1  0
 19 11  1  0
 18 13  1  0
  1 20  1  0
  1 21  1  0
  1 22  1  0
  2 23  1  0
  3 24  1  0
  4 25  1  0
  4 26  1  0
  5 27  1  0
  6 28  1  0
 12 29  1  0
 14 30  1  0
 15 31  1  0
 16 32  1  0
 17 33  1  0
 19 34  1  0
M  END
>  <Energy>  (910) 
91.742214857069882

>  <compound_id>  (910) 
81049

>  <target_id>  (910) 
1

>  <reference_id>  (910) 
76

>  <inspiration_ids>  (910) 
[40, 76]

>  <energy_score>  (910) 
-2.56692371937379

>  <distance_score>  (910) 
8.812937271449103

>  <path>  (910) 
/opt/xchem-fragalysis-2/maxwin/BulkDock/SCRATCH/511024/C81049-P76/C81049-P76.minimised.mol

>  <scratch_subdir>  (910) 
/opt/xchem-fragalysis-2/maxwin/BulkDock/SCRATCH/511024/C81049-P76

>  <fragmenstein_runtime>  (910) 
6.289327383041382

>  <fragmenstein_outcome>  (910) 
too moved

>  <fragmenstein_mode>  (910) 
expansion

>  <fragmenstein_error>  (910) 


$$$$
C81051-P40
     RDKit          3D

 43 44  0  0  0  0  0  0  0  0999 V2000
    6.0799    0.5457   15.6260 C   0  0  0  0  0  0  0  0  0  0  0  0
    5.7595    0.3455   17.1060 C   0  0  0  0  0  0  0  0  0  0  0  0
    6.9787    0.4438   18.0295 C   0  0  0  0  0  0  0  0  0  0  0  0
    7.5448    1.9291   18.0704 C   0  0  0  0  0  0  0  0  0  0  0  0
    8.7574    2.1632   17.1707 C   0  0  0  0  0  0  0  0  0  0  0  0
    7.0273   -0.3911   19.6311 C   0  0  0  0  0  0  0  0  0  0  0  0
    8.4236   -0.3596   19.7069 O   0  0  0  0  0  0  0  0  0  0  0  0
    5.9643   -1.7790   20.7115 C   0  0  0  0  0  0  0  0  0  0  0  0
    4.9788   -1.2510   22.2510 N   0  0  0  0  0  0  0  0  0  0  0  0
    4.8739   -1.8457   23.6561 C   0  0  0  0  0  0  0  0  0  0  0  0
    4.7175   -1.3902   25.1138 C   0  0  0  0  0  0  0  0  0  0  0  0
    4.6056   -0.0836   25.5957 C   0  0  0  0  0  0  0  0  0  0  0  0
    4.1957    0.1907   26.9083 C   0  0  0  0  0  0  0  0  0  0  0  0
    3.8755   -0.8315   27.8092 C   0  0  0  0  0  0  0  0  0  0  0  0
    4.0273   -2.1636   27.4018 C   0  0  0  0  0  0  0  0  0  0  0  0
    3.7848   -3.4204   28.0292 C   0  0  0  0  0  0  0  0  0  0  0  0
    4.1319   -4.4052   27.1373 C   0  0  0  0  0  0  0  0  0  0  0  0
    4.5942   -3.7888   26.0049 N   0  0  0  0  0  0  0  0  0  0  0  0
    4.4825   -2.4099   26.1066 C   0  0  0  0  0  0  0  0  0  0  0  0
    5.1897    0.3409   15.0219 H   0  0  0  0  0  0  0  0  0  0  0  0
    6.8735   -0.1306   15.2937 H   0  0  0  0  0  0  0  0  0  0  0  0
    6.3826    1.5754   15.4183 H   0  0  0  0  0  0  0  0  0  0  0  0
    5.2665   -0.6202   17.1990 H   0  0  0  0  0  0  0  0  0  0  0  0
    5.0068    1.0891   17.3595 H   0  0  0  0  0  0  0  0  0  0  0  0
    7.8066    0.0497   17.4387 H   0  0  0  0  0  0  0  0  0  0  0  0
    6.7748    2.6269   17.7303 H   0  0  0  0  0  0  0  0  0  0  0  0
    7.8150    2.2243   19.0877 H   0  0  0  0  0  0  0  0  0  0  0  0
    9.5686    1.4747   17.4114 H   0  0  0  0  0  0  0  0  0  0  0  0
    9.1253    3.1862   17.2974 H   0  0  0  0  0  0  0  0  0  0  0  0
    8.5082    2.0292   16.1150 H   0  0  0  0  0  0  0  0  0  0  0  0
    6.7047    0.5009   20.0875 H   0  0  0  0  0  0  0  0  0  0  0  0
    8.6834    0.5749   19.7747 H   0  0  0  0  0  0  0  0  0  0  0  0
    5.3778   -2.5023   20.1101 H   0  0  0  0  0  0  0  0  0  0  0  0
    6.5801   -2.6465   21.1001 H   0  0  0  0  0  0  0  0  0  0  0  0
    4.5956   -0.3157   22.1663 H   0  0  0  0  0  0  0  0  0  0  0  0
    3.8445   -2.1825   23.5700 H   0  0  0  0  0  0  0  0  0  0  0  0
    5.6626   -2.5904   23.7532 H   0  0  0  0  0  0  0  0  0  0  0  0
    4.8057    0.7554   24.9397 H   0  0  0  0  0  0  0  0  0  0  0  0
    4.1009    1.2258   27.2312 H   0  0  0  0  0  0  0  0  0  0  0  0
    3.5278   -0.5914   28.8091 H   0  0  0  0  0  0  0  0  0  0  0  0
    3.4120   -3.5723   29.0331 H   0  0  0  0  0  0  0  0  0  0  0  0
    4.1344   -5.4831   27.2176 H   0  0  0  0  0  0  0  0  0  0  0  0
    4.9958   -4.2684   25.2095 H   0  0  0  0  0  0  0  0  0  0  0  0
  1  2  1  0
  2  3  1  0
  3  4  1  0
  4  5  1  0
  3  6  1  0
  6  7  1  0
  6  8  1  0
  8  9  1  0
  9 10  1  0
 10 11  1  0
 11 12  2  0
 12 13  1  0
 13 14  2  0
 14 15  1  0
 15 16  1  0
 16 17  2  0
 17 18  1  0
 18 19  1  0
 19 11  1  0
 19 15  2  0
  1 20  1  0
  1 21  1  0
  1 22  1  0
  2 23  1  0
  2 24  1  0
  3 25  1  0
  4 26  1  0
  4 27  1  0
  5 28  1  0
  5 29  1  0
  5 30  1  0
  6 31  1  0
  7 32  1  0
  8 33  1  0
  8 34  1  0
  9 35  1  0
 10 36  1  0
 10 37  1  0
 12 38  1  0
 13 39  1  0
 14 40  1  0
 16 41  1  0
 17 42  1  0
 18 43  1  0
M  END
>  <Energy>  (911) 
282.94185248068771

>  <compound_id>  (911) 
81051

>  <target_id>  (911) 
1

>  <reference_id>  (911) 
40

>  <inspiration_ids>  (911) 
[40, 76]

>  <energy_score>  (911) 
202.50920533691385

>  <distance_score>  (911) 
8.412477352021899

>  <path>  (911) 
/opt/xchem-fragalysis-2/maxwin/BulkDock/SCRATCH/511024/C81051-P40/C81051-P40.minimised.mol

>  <scratch_subdir>  (911) 
/opt/xchem-fragalysis-2/maxwin/BulkDock/SCRATCH/511024/C81051-P40

>  <fragmenstein_runtime>  (911) 
5.639644384384155

>  <fragmenstein_outcome>  (911) 
too moved

>  <fragmenstein_mode>  (911) 
expansion

>  <fragmenstein_error>  (911) 


$$$$
C81051-P76
     RDKit          3D

 43 44  0  0  0  0  0  0  0  0999 V2000
   12.6585    1.5276   23.8754 C   0  0  0  0  0  0  0  0  0  0  0  0
   11.6012    0.4530   24.0870 C   0  0  0  0  0  0  0  0  0  0  0  0
   10.6498    0.7158   25.3010 C   0  0  0  0  0  0  0  0  0  0  0  0
    9.8216    1.9935   25.0378 C   0  0  0  0  0  0  0  0  0  0  0  0
   10.3614    3.2094   25.7813 C   0  0  0  0  0  0  0  0  0  0  0  0
    9.7224   -0.5208   25.6587 C   0  0  0  0  0  0  0  0  0  0  0  0
   10.5477   -1.6860   25.5734 O   0  0  0  0  0  0  0  0  0  0  0  0
    8.9246   -0.5195   27.0603 C   0  0  0  0  0  0  0  0  0  0  0  0
    7.5388   -1.1345   27.0643 N   0  0  0  0  0  0  0  0  0  0  0  0
    6.9580   -1.3600   28.4165 C   0  0  0  0  0  0  0  0  0  0  0  0
    5.4770   -1.7535   28.4633 C   0  0  0  0  0  0  0  0  0  0  0  0
    4.5387   -1.1267   27.6152 C   0  0  0  0  0  0  0  0  0  0  0  0
    3.1691   -1.4041   27.6611 C   0  0  0  0  0  0  0  0  0  0  0  0
    2.6540   -2.3098   28.5867 C   0  0  0  0  0  0  0  0  0  0  0  0
    3.5398   -2.9606   29.4611 C   0  0  0  0  0  0  0  0  0  0  0  0
    3.3568   -3.9495   30.4687 C   0  0  0  0  0  0  0  0  0  0  0  0
    4.5954   -4.2480   30.9815 C   0  0  0  0  0  0  0  0  0  0  0  0
    5.5164   -3.4647   30.3380 N   0  0  0  0  0  0  0  0  0  0  0  0
    4.9114   -2.6781   29.3805 C   0  0  0  0  0  0  0  0  0  0  0  0
   12.2130    2.4705   23.5465 H   0  0  0  0  0  0  0  0  0  0  0  0
   13.2286    1.7064   24.7920 H   0  0  0  0  0  0  0  0  0  0  0  0
   13.3603    1.2114   23.0966 H   0  0  0  0  0  0  0  0  0  0  0  0
   12.1281   -0.4963   24.2296 H   0  0  0  0  0  0  0  0  0  0  0  0
   11.0079    0.3681   23.1717 H   0  0  0  0  0  0  0  0  0  0  0  0
   11.2930    0.8647   26.1794 H   0  0  0  0  0  0  0  0  0  0  0  0
    9.7572    2.2189   23.9674 H   0  0  0  0  0  0  0  0  0  0  0  0
    8.7940    1.8432   25.3828 H   0  0  0  0  0  0  0  0  0  0  0  0
    9.7369    4.0840   25.5729 H   0  0  0  0  0  0  0  0  0  0  0  0
   11.3855    3.4499   25.4865 H   0  0  0  0  0  0  0  0  0  0  0  0
   10.3492    3.0390   26.8629 H   0  0  0  0  0  0  0  0  0  0  0  0
    8.9537   -0.6213   24.9132 H   0  0  0  0  0  0  0  0  0  0  0  0
    9.9717   -2.4694   25.4691 H   0  0  0  0  0  0  0  0  0  0  0  0
    9.5383   -1.0534   27.7950 H   0  0  0  0  0  0  0  0  0  0  0  0
    8.8064    0.5179   27.3896 H   0  0  0  0  0  0  0  0  0  0  0  0
    7.5157   -2.0223   26.5572 H   0  0  0  0  0  0  0  0  0  0  0  0
    7.5516   -2.1330   28.9167 H   0  0  0  0  0  0  0  0  0  0  0  0
    7.0547   -0.4366   29.0005 H   0  0  0  0  0  0  0  0  0  0  0  0
    4.8981   -0.4139   26.8738 H   0  0  0  0  0  0  0  0  0  0  0  0
    2.4969   -0.9206   26.9560 H   0  0  0  0  0  0  0  0  0  0  0  0
    1.5895   -2.5221   28.6061 H   0  0  0  0  0  0  0  0  0  0  0  0
    2.4171   -4.3880   30.7808 H   0  0  0  0  0  0  0  0  0  0  0  0
    4.8963   -4.9232   31.7708 H   0  0  0  0  0  0  0  0  0  0  0  0
    6.5072   -3.4574   30.5332 H   0  0  0  0  0  0  0  0  0  0  0  0
  1  2  1  0
  2  3  1  0
  3  4  1  0
  4  5  1  0
  3  6  1  0
  6  7  1  0
  6  8  1  0
  8  9  1  0
  9 10  1  0
 10 11  1  0
 11 12  2  0
 12 13  1  0
 13 14  2  0
 14 15  1  0
 15 16  1  0
 16 17  2  0
 17 18  1  0
 18 19  1  0
 19 11  1  0
 19 15  2  0
  1 20  1  0
  1 21  1  0
  1 22  1  0
  2 23  1  0
  2 24  1  0
  3 25  1  0
  4 26  1  0
  4 27  1  0
  5 28  1  0
  5 29  1  0
  5 30  1  0
  6 31  1  0
  7 32  1  0
  8 33  1  0
  8 34  1  0
  9 35  1  0
 10 36  1  0
 10 37  1  0
 12 38  1  0
 13 39  1  0
 14 40  1  0
 16 41  1  0
 17 42  1  0
 18 43  1  0
M  END
>  <Energy>  (912) 
57.687914589106079

>  <compound_id>  (912) 
81051

>  <target_id>  (912) 
1

>  <reference_id>  (912) 
76

>  <inspiration_ids>  (912) 
[40, 76]

>  <energy_score>  (912) 
-22.74473255466569

>  <distance_score>  (912) 
8.949732669542634

>  <path>  (912) 
/opt/xchem-fragalysis-2/maxwin/BulkDock/SCRATCH/511024/C81051-P76/C81051-P76.minimised.mol

>  <scratch_subdir>  (912) 
/opt/xchem-fragalysis-2/maxwin/BulkDock/SCRATCH/511024/C81051-P76

>  <fragmenstein_runtime>  (912) 
4.947046756744385

>  <fragmenstein_outcome>  (912) 
too moved

>  <fragmenstein_mode>  (912) 
expansion

>  <fragmenstein_error>  (912) 


$$$$
C81062-P40
     RDKit          3D

 40 41  0  0  0  0  0  0  0  0999 V2000
    0.9061  -14.1526   23.0424 C   0  0  0  0  0  0  0  0  0  0  0  0
   -0.3635  -13.3295   23.2076 C   0  0  0  0  0  0  0  0  0  0  0  0
   -1.1868  -13.8388   24.4605 C   0  0  0  0  0  0  0  0  0  0  0  0
   -2.5975  -13.1541   24.8172 C   0  0  0  0  0  0  0  0  0  0  0  0
   -2.7931  -12.0686   23.8388 O   0  0  0  0  0  0  0  0  0  0  0  0
   -3.0821  -12.5575   26.4051 C   0  0  0  0  0  0  0  0  0  0  0  0
   -3.0282  -13.0463   27.8751 N   0  0  0  0  0  0  0  0  0  0  0  0
   -4.1840  -13.9044   28.1446 C   0  0  0  0  0  0  0  0  0  0  0  0
   -2.8182  -11.9940   29.2598 C   0  0  0  0  0  0  0  0  0  0  0  0
   -1.4850  -10.7414   29.8748 C   0  0  0  0  0  0  0  0  0  0  0  0
   -0.5932   -9.9405   29.1818 C   0  0  0  0  0  0  0  0  0  0  0  0
   -0.2200   -8.6482   29.6718 C   0  0  0  0  0  0  0  0  0  0  0  0
    0.4713   -7.5162   29.2060 C   0  0  0  0  0  0  0  0  0  0  0  0
    0.5077   -6.3517   29.9873 C   0  0  0  0  0  0  0  0  0  0  0  0
   -0.0980   -6.3238   31.2399 C   0  0  0  0  0  0  0  0  0  0  0  0
   -0.7498   -7.4534   31.7387 C   0  0  0  0  0  0  0  0  0  0  0  0
   -0.7869   -8.5878   30.9170 C   0  0  0  0  0  0  0  0  0  0  0  0
   -1.3824   -9.8376   31.1237 N   0  0  0  0  0  0  0  0  0  0  0  0
    0.6734  -15.2155   22.9232 H   0  0  0  0  0  0  0  0  0  0  0  0
    1.5602  -14.0379   23.9127 H   0  0  0  0  0  0  0  0  0  0  0  0
    1.4577  -13.8247   22.1558 H   0  0  0  0  0  0  0  0  0  0  0  0
   -0.9867  -13.4511   22.3139 H   0  0  0  0  0  0  0  0  0  0  0  0
   -0.0817  -12.2775   23.2582 H   0  0  0  0  0  0  0  0  0  0  0  0
   -1.4275  -14.8933   24.2582 H   0  0  0  0  0  0  0  0  0  0  0  0
   -0.5643  -13.9051   25.3566 H   0  0  0  0  0  0  0  0  0  0  0  0
   -3.3703  -13.8982   24.5858 H   0  0  0  0  0  0  0  0  0  0  0  0
   -2.0201  -11.4916   24.0128 H   0  0  0  0  0  0  0  0  0  0  0  0
   -2.5801  -11.6121   26.4409 H   0  0  0  0  0  0  0  0  0  0  0  0
   -4.1394  -12.3255   26.2170 H   0  0  0  0  0  0  0  0  0  0  0  0
   -4.2771  -14.6779   27.3745 H   0  0  0  0  0  0  0  0  0  0  0  0
   -4.0658  -14.4255   29.1001 H   0  0  0  0  0  0  0  0  0  0  0  0
   -5.1139  -13.3275   28.1753 H   0  0  0  0  0  0  0  0  0  0  0  0
   -3.8231  -11.7540   29.5561 H   0  0  0  0  0  0  0  0  0  0  0  0
   -2.6930  -12.8146   29.9433 H   0  0  0  0  0  0  0  0  0  0  0  0
   -0.5355  -10.3061   28.2274 H   0  0  0  0  0  0  0  0  0  0  0  0
    0.9803   -7.5137   28.2544 H   0  0  0  0  0  0  0  0  0  0  0  0
    1.0233   -5.4660   29.6204 H   0  0  0  0  0  0  0  0  0  0  0  0
   -0.0548   -5.4191   31.8437 H   0  0  0  0  0  0  0  0  0  0  0  0
   -1.2128   -7.4458   32.7215 H   0  0  0  0  0  0  0  0  0  0  0  0
   -1.9939   -9.8632   31.9238 H   0  0  0  0  0  0  0  0  0  0  0  0
  1  2  1  0
  2  3  1  0
  3  4  1  0
  4  5  1  0
  4  6  1  0
  6  7  1  0
  7  8  1  0
  7  9  1  0
  9 10  1  0
 10 11  2  0
 11 12  1  0
 12 13  2  0
 13 14  1  0
 14 15  2  0
 15 16  1  0
 16 17  2  0
 17 18  1  0
 18 10  1  0
 17 12  1  0
  1 19  1  0
  1 20  1  0
  1 21  1  0
  2 22  1  0
  2 23  1  0
  3 24  1  0
  3 25  1  0
  4 26  1  0
  5 27  1  0
  6 28  1  0
  6 29  1  0
  8 30  1  0
  8 31  1  0
  8 32  1  0
  9 33  1  0
  9 34  1  0
 11 35  1  0
 13 36  1  0
 14 37  1  0
 15 38  1  0
 16 39  1  0
 18 40  1  0
M  END
>  <Energy>  (913) 
215.89289847869711

>  <compound_id>  (913) 
81062

>  <target_id>  (913) 
1

>  <reference_id>  (913) 
40

>  <inspiration_ids>  (913) 
[40, 76]

>  <energy_score>  (913) 
135.62310192179746

>  <distance_score>  (913) 
14.792389292429636

>  <path>  (913) 
/opt/xchem-fragalysis-2/maxwin/BulkDock/SCRATCH/511024/C81062-P40/C81062-P40.minimised.mol

>  <scratch_subdir>  (913) 
/opt/xchem-fragalysis-2/maxwin/BulkDock/SCRATCH/511024/C81062-P40

>  <fragmenstein_runtime>  (913) 
6.4037864208221436

>  <fragmenstein_outcome>  (913) 
too moved

>  <fragmenstein_mode>  (913) 
expansion

>  <fragmenstein_error>  (913) 


$$$$
C81062-P76
     RDKit          3D

 40 41  0  0  0  0  0  0  0  0999 V2000
   12.1421    2.1331   23.9294 C   0  0  0  0  0  0  0  0  0  0  0  0
   10.8315    1.3817   24.1031 C   0  0  0  0  0  0  0  0  0  0  0  0
   10.5190    1.1358   25.5970 C   0  0  0  0  0  0  0  0  0  0  0  0
    9.1750    0.3990   25.8749 C   0  0  0  0  0  0  0  0  0  0  0  0
    9.2759   -0.8823   25.2753 O   0  0  0  0  0  0  0  0  0  0  0  0
    8.7858    0.2633   27.4143 C   0  0  0  0  0  0  0  0  0  0  0  0
    7.3387    0.0486   27.8546 N   0  0  0  0  0  0  0  0  0  0  0  0
    7.2203    0.4484   29.2620 C   0  0  0  0  0  0  0  0  0  0  0  0
    6.8562   -1.3437   27.6583 C   0  0  0  0  0  0  0  0  0  0  0  0
    5.4607   -1.6496   28.1795 C   0  0  0  0  0  0  0  0  0  0  0  0
    4.2182   -1.5262   27.5786 C   0  0  0  0  0  0  0  0  0  0  0  0
    3.2530   -2.1988   28.3824 C   0  0  0  0  0  0  0  0  0  0  0  0
    1.8842   -2.4965   28.2295 C   0  0  0  0  0  0  0  0  0  0  0  0
    1.2288   -3.2520   29.2082 C   0  0  0  0  0  0  0  0  0  0  0  0
    1.9149   -3.6973   30.3365 C   0  0  0  0  0  0  0  0  0  0  0  0
    3.2739   -3.4093   30.5124 C   0  0  0  0  0  0  0  0  0  0  0  0
    3.9199   -2.6687   29.5116 C   0  0  0  0  0  0  0  0  0  0  0  0
    5.2415   -2.2937   29.3791 N   0  0  0  0  0  0  0  0  0  0  0  0
   12.1033    3.1091   24.4233 H   0  0  0  0  0  0  0  0  0  0  0  0
   12.9777    1.5663   24.3521 H   0  0  0  0  0  0  0  0  0  0  0  0
   12.3460    2.2975   22.8666 H   0  0  0  0  0  0  0  0  0  0  0  0
   10.9003    0.4300   23.5706 H   0  0  0  0  0  0  0  0  0  0  0  0
   10.0223    1.9647   23.6500 H   0  0  0  0  0  0  0  0  0  0  0  0
   10.5025    2.1010   26.1174 H   0  0  0  0  0  0  0  0  0  0  0  0
   11.3378    0.5469   26.0297 H   0  0  0  0  0  0  0  0  0  0  0  0
    8.3755    0.9597   25.3938 H   0  0  0  0  0  0  0  0  0  0  0  0
    9.8772   -1.4372   25.8009 H   0  0  0  0  0  0  0  0  0  0  0  0
    9.1006    1.2175   27.8569 H   0  0  0  0  0  0  0  0  0  0  0  0
    9.4064   -0.5188   27.8708 H   0  0  0  0  0  0  0  0  0  0  0  0
    6.1766    0.4569   29.5923 H   0  0  0  0  0  0  0  0  0  0  0  0
    7.5740    1.4760   29.4057 H   0  0  0  0  0  0  0  0  0  0  0  0
    7.7964   -0.2079   29.9242 H   0  0  0  0  0  0  0  0  0  0  0  0
    6.8662   -1.5362   26.5807 H   0  0  0  0  0  0  0  0  0  0  0  0
    7.5620   -2.0507   28.1143 H   0  0  0  0  0  0  0  0  0  0  0  0
    4.0455   -1.0951   26.6000 H   0  0  0  0  0  0  0  0  0  0  0  0
    1.3507   -2.1529   27.3475 H   0  0  0  0  0  0  0  0  0  0  0  0
    0.1737   -3.4823   29.0848 H   0  0  0  0  0  0  0  0  0  0  0  0
    1.3892   -4.2790   31.0914 H   0  0  0  0  0  0  0  0  0  0  0  0
    3.8051   -3.7623   31.3896 H   0  0  0  0  0  0  0  0  0  0  0  0
    5.9670   -2.5307   30.0383 H   0  0  0  0  0  0  0  0  0  0  0  0
  1  2  1  0
  2  3  1  0
  3  4  1  0
  4  5  1  0
  4  6  1  0
  6  7  1  0
  7  8  1  0
  7  9  1  0
  9 10  1  0
 10 11  2  0
 11 12  1  0
 12 13  2  0
 13 14  1  0
 14 15  2  0
 15 16  1  0
 16 17  2  0
 17 18  1  0
 18 10  1  0
 17 12  1  0
  1 19  1  0
  1 20  1  0
  1 21  1  0
  2 22  1  0
  2 23  1  0
  3 24  1  0
  3 25  1  0
  4 26  1  0
  5 27  1  0
  6 28  1  0
  6 29  1  0
  8 30  1  0
  8 31  1  0
  8 32  1  0
  9 33  1  0
  9 34  1  0
 11 35  1  0
 13 36  1  0
 14 37  1  0
 15 38  1  0
 16 39  1  0
 18 40  1  0
M  END
>  <Energy>  (914) 
44.173208051680099

>  <compound_id>  (914) 
81062

>  <target_id>  (914) 
1

>  <reference_id>  (914) 
76

>  <inspiration_ids>  (914) 
[40, 76]

>  <energy_score>  (914) 
-36.096588505220325

>  <distance_score>  (914) 
8.980500596517313

>  <path>  (914) 
/opt/xchem-fragalysis-2/maxwin/BulkDock/SCRATCH/511024/C81062-P76/C81062-P76.minimised.mol

>  <scratch_subdir>  (914) 
/opt/xchem-fragalysis-2/maxwin/BulkDock/SCRATCH/511024/C81062-P76

>  <fragmenstein_runtime>  (914) 
4.260131359100342

>  <fragmenstein_outcome>  (914) 
too moved

>  <fragmenstein_mode>  (914) 
expansion

>  <fragmenstein_error>  (914) 


$$$$
C81070-P40
     RDKit          3D

 45 46  0  0  0  0  0  0  0  0999 V2000
    7.7079    3.1442   18.1160 C   0  0  0  0  0  0  0  0  0  0  0  0
    7.3715    2.1518   18.9930 C   0  0  0  0  0  0  0  0  0  0  0  0
    6.9192    0.3164   18.8497 C   0  0  0  0  0  0  0  0  0  0  0  0
    6.8047   -0.5632   20.0498 N   0  0  0  0  0  0  0  0  0  0  0  0
    8.4320    0.3432   19.9430 C   0  0  0  0  0  0  0  0  0  0  0  0
    9.1463    0.9182   18.2364 C   0  0  0  0  0  0  0  0  0  0  0  0
    9.2612    0.5265   16.9321 C   0  0  0  0  0  0  0  0  0  0  0  0
    5.4132   -0.6818   21.4794 C   0  0  0  0  0  0  0  0  0  0  0  0
    4.5555    0.1854   21.3829 O   0  0  0  0  0  0  0  0  0  0  0  0
    5.0985   -1.7195   23.1455 C   0  0  0  0  0  0  0  0  0  0  0  0
    5.1301   -1.1328   24.7574 N   0  0  0  0  0  0  0  0  0  0  0  0
    6.1652   -1.6537   25.6806 C   0  0  0  0  0  0  0  0  0  0  0  0
    3.9696   -0.7259   25.5693 C   0  0  0  0  0  0  0  0  0  0  0  0
    3.4675   -1.6116   26.7707 C   0  0  0  0  0  0  0  0  0  0  0  0
    2.8010   -0.9271   27.8215 C   0  0  0  0  0  0  0  0  0  0  0  0
    2.1938   -1.5763   28.8980 C   0  0  0  0  0  0  0  0  0  0  0  0
    2.1974   -2.9658   28.9808 C   0  0  0  0  0  0  0  0  0  0  0  0
    2.8260   -3.7068   27.9672 C   0  0  0  0  0  0  0  0  0  0  0  0
    2.9624   -5.1064   27.7398 C   0  0  0  0  0  0  0  0  0  0  0  0
    3.6551   -5.2679   26.5673 C   0  0  0  0  0  0  0  0  0  0  0  0
    3.9580   -4.0194   26.0904 N   0  0  0  0  0  0  0  0  0  0  0  0
    3.4537   -3.0303   26.9101 C   0  0  0  0  0  0  0  0  0  0  0  0
    7.9149    4.1469   18.4847 H   0  0  0  0  0  0  0  0  0  0  0  0
    7.8272    2.9934   17.0468 H   0  0  0  0  0  0  0  0  0  0  0  0
    7.3355    2.5194   19.9936 H   0  0  0  0  0  0  0  0  0  0  0  0
    7.4977   -0.0094   18.0358 H   0  0  0  0  0  0  0  0  0  0  0  0
    6.1353   -0.0749   18.1924 H   0  0  0  0  0  0  0  0  0  0  0  0
    8.8066   -0.5444   19.6006 H   0  0  0  0  0  0  0  0  0  0  0  0
    9.1369    0.8016   20.6711 H   0  0  0  0  0  0  0  0  0  0  0  0
    9.5779    1.9305   18.3504 H   0  0  0  0  0  0  0  0  0  0  0  0
    9.7377    1.2023   16.2205 H   0  0  0  0  0  0  0  0  0  0  0  0
    8.8808   -0.3846   16.4850 H   0  0  0  0  0  0  0  0  0  0  0  0
    5.7511   -2.5912   23.2373 H   0  0  0  0  0  0  0  0  0  0  0  0
    4.0313   -1.9284   23.1451 H   0  0  0  0  0  0  0  0  0  0  0  0
    7.1819   -1.3109   25.4705 H   0  0  0  0  0  0  0  0  0  0  0  0
    6.0261   -1.2771   26.7031 H   0  0  0  0  0  0  0  0  0  0  0  0
    6.1532   -2.7397   25.7450 H   0  0  0  0  0  0  0  0  0  0  0  0
    4.3129    0.2028   26.0528 H   0  0  0  0  0  0  0  0  0  0  0  0
    3.1398   -0.3604   24.9697 H   0  0  0  0  0  0  0  0  0  0  0  0
    2.7341    0.1607   27.7808 H   0  0  0  0  0  0  0  0  0  0  0  0
    1.6931   -0.9901   29.6646 H   0  0  0  0  0  0  0  0  0  0  0  0
    1.7034   -3.4617   29.8098 H   0  0  0  0  0  0  0  0  0  0  0  0
    2.5927   -5.8987   28.3739 H   0  0  0  0  0  0  0  0  0  0  0  0
    3.9857   -6.1516   26.0356 H   0  0  0  0  0  0  0  0  0  0  0  0
    4.4906   -3.8355   25.2527 H   0  0  0  0  0  0  0  0  0  0  0  0
  1  2  2  0
  2  3  1  0
  3  4  1  0
  4  5  1  0
  5  6  1  0
  6  7  2  0
  4  8  1  0
  8  9  2  0
  8 10  1  0
 10 11  1  0
 11 12  1  0
 11 13  1  0
 13 14  1  0
 14 15  2  0
 15 16  1  0
 16 17  2  0
 17 18  1  0
 18 19  1  0
 19 20  2  0
 20 21  1  0
 21 22  1  0
 22 14  1  0
 22 18  2  0
  1 23  1  0
  1 24  1  0
  2 25  1  0
  3 26  1  0
  3 27  1  0
  5 28  1  0
  5 29  1  0
  6 30  1  0
  7 31  1  0
  7 32  1  0
 10 33  1  0
 10 34  1  0
 12 35  1  0
 12 36  1  0
 12 37  1  0
 13 38  1  0
 13 39  1  0
 15 40  1  0
 16 41  1  0
 17 42  1  0
 19 43  1  0
 20 44  1  0
 21 45  1  0
M  END
>  <Energy>  (915) 
700.50809808250187

>  <compound_id>  (915) 
81070

>  <target_id>  (915) 
1

>  <reference_id>  (915) 
40

>  <inspiration_ids>  (915) 
[40, 76]

>  <energy_score>  (915) 
595.0694631247814

>  <distance_score>  (915) 
7.224597317705102

>  <path>  (915) 
/opt/xchem-fragalysis-2/maxwin/BulkDock/SCRATCH/511024/C81070-P40/C81070-P40.minimised.mol

>  <scratch_subdir>  (915) 
/opt/xchem-fragalysis-2/maxwin/BulkDock/SCRATCH/511024/C81070-P40

>  <fragmenstein_runtime>  (915) 
10.348899126052856

>  <fragmenstein_outcome>  (915) 
too moved

>  <fragmenstein_mode>  (915) 
expansion

>  <fragmenstein_error>  (915) 


$$$$
C81070-P76
     RDKit          3D

 45 46  0  0  0  0  0  0  0  0999 V2000
   13.5313   -3.4524   17.5229 C   0  0  0  0  0  0  0  0  0  0  0  0
   12.6762   -4.2446   18.2010 C   0  0  0  0  0  0  0  0  0  0  0  0
   12.4938   -4.2791   19.7691 C   0  0  0  0  0  0  0  0  0  0  0  0
   10.9154   -4.3537   20.7368 N   0  0  0  0  0  0  0  0  0  0  0  0
   12.1533   -3.8818   21.8384 C   0  0  0  0  0  0  0  0  0  0  0  0
   12.0914   -3.9156   23.3358 C   0  0  0  0  0  0  0  0  0  0  0  0
   12.6009   -2.9587   24.1247 C   0  0  0  0  0  0  0  0  0  0  0  0
    9.2152   -3.3635   20.3765 C   0  0  0  0  0  0  0  0  0  0  0  0
    8.9726   -2.5199   19.5612 O   0  0  0  0  0  0  0  0  0  0  0  0
    7.7850   -3.8603   21.8109 C   0  0  0  0  0  0  0  0  0  0  0  0
    7.1652   -3.6431   23.7175 N   0  0  0  0  0  0  0  0  0  0  0  0
    5.8019   -2.4239   24.0043 C   0  0  0  0  0  0  0  0  0  0  0  0
    8.0032   -2.8084   25.2625 C   0  0  0  0  0  0  0  0  0  0  0  0
    8.1139   -3.2635   26.8282 C   0  0  0  0  0  0  0  0  0  0  0  0
    9.1593   -4.1143   27.2430 C   0  0  0  0  0  0  0  0  0  0  0  0
    9.2185   -4.6628   28.5285 C   0  0  0  0  0  0  0  0  0  0  0  0
    8.2473   -4.3760   29.4885 C   0  0  0  0  0  0  0  0  0  0  0  0
    7.2265   -3.4720   29.1688 C   0  0  0  0  0  0  0  0  0  0  0  0
    6.0928   -2.9950   29.8870 C   0  0  0  0  0  0  0  0  0  0  0  0
    5.4048   -2.1451   29.0586 C   0  0  0  0  0  0  0  0  0  0  0  0
    6.1032   -2.0628   27.8846 N   0  0  0  0  0  0  0  0  0  0  0  0
    7.2133   -2.8965   27.8942 C   0  0  0  0  0  0  0  0  0  0  0  0
   13.5954   -3.5235   16.4406 H   0  0  0  0  0  0  0  0  0  0  0  0
   14.1884   -2.7472   18.0188 H   0  0  0  0  0  0  0  0  0  0  0  0
   12.1010   -4.9351   17.5943 H   0  0  0  0  0  0  0  0  0  0  0  0
   12.9721   -5.2361   20.0292 H   0  0  0  0  0  0  0  0  0  0  0  0
   13.1250   -3.4254   20.0035 H   0  0  0  0  0  0  0  0  0  0  0  0
   12.7276   -4.8311   21.8218 H   0  0  0  0  0  0  0  0  0  0  0  0
   12.9402   -3.1724   21.5895 H   0  0  0  0  0  0  0  0  0  0  0  0
   11.7275   -4.8138   23.8253 H   0  0  0  0  0  0  0  0  0  0  0  0
   12.5655   -3.0623   25.2049 H   0  0  0  0  0  0  0  0  0  0  0  0
   13.0496   -2.0522   23.7319 H   0  0  0  0  0  0  0  0  0  0  0  0
    7.6980   -4.9466   21.8349 H   0  0  0  0  0  0  0  0  0  0  0  0
    7.0835   -3.2925   21.2206 H   0  0  0  0  0  0  0  0  0  0  0  0
    4.8596   -2.7599   24.5013 H   0  0  0  0  0  0  0  0  0  0  0  0
    5.9914   -1.7474   24.8124 H   0  0  0  0  0  0  0  0  0  0  0  0
    5.5400   -1.9698   23.0437 H   0  0  0  0  0  0  0  0  0  0  0  0
    7.4932   -1.8637   25.4745 H   0  0  0  0  0  0  0  0  0  0  0  0
    8.9557   -2.3058   25.0294 H   0  0  0  0  0  0  0  0  0  0  0  0
    9.9286   -4.3972   26.5261 H   0  0  0  0  0  0  0  0  0  0  0  0
   10.0336   -5.3377   28.7792 H   0  0  0  0  0  0  0  0  0  0  0  0
    8.2979   -4.8303   30.4726 H   0  0  0  0  0  0  0  0  0  0  0  0
    5.8058   -3.2644   30.8944 H   0  0  0  0  0  0  0  0  0  0  0  0
    4.4801   -1.6011   29.1917 H   0  0  0  0  0  0  0  0  0  0  0  0
    5.7604   -1.6306   27.0402 H   0  0  0  0  0  0  0  0  0  0  0  0
  1  2  2  0
  2  3  1  0
  3  4  1  0
  4  5  1  0
  5  6  1  0
  6  7  2  0
  4  8  1  0
  8  9  2  0
  8 10  1  0
 10 11  1  0
 11 12  1  0
 11 13  1  0
 13 14  1  0
 14 15  2  0
 15 16  1  0
 16 17  2  0
 17 18  1  0
 18 19  1  0
 19 20  2  0
 20 21  1  0
 21 22  1  0
 22 14  1  0
 22 18  2  0
  1 23  1  0
  1 24  1  0
  2 25  1  0
  3 26  1  0
  3 27  1  0
  5 28  1  0
  5 29  1  0
  6 30  1  0
  7 31  1  0
  7 32  1  0
 10 33  1  0
 10 34  1  0
 12 35  1  0
 12 36  1  0
 12 37  1  0
 13 38  1  0
 13 39  1  0
 15 40  1  0
 16 41  1  0
 17 42  1  0
 19 43  1  0
 20 44  1  0
 21 45  1  0
M  END
>  <Energy>  (916) 
724.6743956952364

>  <compound_id>  (916) 
81070

>  <target_id>  (916) 
1

>  <reference_id>  (916) 
76

>  <inspiration_ids>  (916) 
[40, 76]

>  <energy_score>  (916) 
619.2357607374997

>  <distance_score>  (916) 
8.666794423812965

>  <path>  (916) 
/opt/xchem-fragalysis-2/maxwin/BulkDock/SCRATCH/511024/C81070-P76/C81070-P76.minimised.mol

>  <scratch_subdir>  (916) 
/opt/xchem-fragalysis-2/maxwin/BulkDock/SCRATCH/511024/C81070-P76

>  <fragmenstein_runtime>  (916) 
14.83356499671936

>  <fragmenstein_outcome>  (916) 
too moved

>  <fragmenstein_mode>  (916) 
expansion

>  <fragmenstein_error>  (916) 


$$$$
C52456-P40
     RDKit          3D

 49 51  0  0  0  0  0  0  0  0999 V2000
    5.9347   -6.6776   29.6594 O   0  0  0  0  0  0  0  0  0  0  0  0
    6.4327   -6.2557   28.6302 C   0  0  0  0  0  0  0  0  0  0  0  0
    7.3428   -5.2654   28.6555 O   0  0  0  0  0  0  0  0  0  0  0  0
    6.1325   -6.7401   27.2426 C   0  0  0  0  0  0  0  0  0  0  0  0
    5.2606   -5.7348   26.4692 C   0  0  0  0  0  0  0  0  0  0  0  0
    5.2425   -6.1222   24.9382 C   0  0  0  0  0  0  0  0  0  0  0  0
    5.9483   -4.9920   24.0619 C   0  0  0  0  0  0  0  0  0  0  0  0
    6.8969   -5.2353   22.8551 N   0  0  0  0  0  0  0  0  0  0  0  0
    7.5037   -4.0959   21.5364 C   0  0  0  0  0  0  0  0  0  0  0  0
    7.1098   -2.9816   21.4225 O   0  0  0  0  0  0  0  0  0  0  0  0
    8.7718   -4.3529   20.4606 O   0  0  0  0  0  0  0  0  0  0  0  0
   10.4247   -5.1932   20.7602 C   0  0  0  0  0  0  0  0  0  0  0  0
   11.8447   -4.5368   21.1927 C   0  0  0  0  0  0  0  0  0  0  0  0
   12.0909   -3.8593   22.3847 C   0  0  0  0  0  0  0  0  0  0  0  0
   13.3428   -3.2712   22.6348 C   0  0  0  0  0  0  0  0  0  0  0  0
   14.3842   -3.3652   21.7171 C   0  0  0  0  0  0  0  0  0  0  0  0
   14.1804   -4.0521   20.5354 C   0  0  0  0  0  0  0  0  0  0  0  0
   12.9336   -4.6257   20.2851 C   0  0  0  0  0  0  0  0  0  0  0  0
    3.9070   -5.4806   27.1312 C   0  0  0  0  0  0  0  0  0  0  0  0
    3.0765   -6.5307   27.5576 C   0  0  0  0  0  0  0  0  0  0  0  0
    1.9363   -6.3188   28.3390 C   0  0  0  0  0  0  0  0  0  0  0  0
    1.5383   -5.0344   28.6905 C   0  0  0  0  0  0  0  0  0  0  0  0
    2.3007   -3.9527   28.2356 C   0  0  0  0  0  0  0  0  0  0  0  0
    2.1667   -2.5496   28.3855 C   0  0  0  0  0  0  0  0  0  0  0  0
    3.2281   -1.9610   27.7439 C   0  0  0  0  0  0  0  0  0  0  0  0
    4.0011   -2.9540   27.2098 N   0  0  0  0  0  0  0  0  0  0  0  0
    3.4511   -4.1922   27.4795 C   0  0  0  0  0  0  0  0  0  0  0  0
    7.4273   -5.0352   29.6045 H   0  0  0  0  0  0  0  0  0  0  0  0
    7.0935   -6.8968   26.7361 H   0  0  0  0  0  0  0  0  0  0  0  0
    5.6638   -7.7259   27.3124 H   0  0  0  0  0  0  0  0  0  0  0  0
    5.7953   -4.7800   26.5523 H   0  0  0  0  0  0  0  0  0  0  0  0
    5.8036   -7.0511   24.7786 H   0  0  0  0  0  0  0  0  0  0  0  0
    4.2216   -6.3381   24.6397 H   0  0  0  0  0  0  0  0  0  0  0  0
    6.7993   -4.9915   24.7599 H   0  0  0  0  0  0  0  0  0  0  0  0
    5.6699   -3.9584   24.2939 H   0  0  0  0  0  0  0  0  0  0  0  0
    7.2768   -6.1189   22.7193 H   0  0  0  0  0  0  0  0  0  0  0  0
   10.5165   -5.4537   19.7194 H   0  0  0  0  0  0  0  0  0  0  0  0
   10.4436   -6.1943   21.1864 H   0  0  0  0  0  0  0  0  0  0  0  0
   11.3306   -3.7131   23.1421 H   0  0  0  0  0  0  0  0  0  0  0  0
   13.4882   -2.7129   23.5578 H   0  0  0  0  0  0  0  0  0  0  0  0
   15.3412   -2.8970   21.9261 H   0  0  0  0  0  0  0  0  0  0  0  0
   14.9725   -4.1330   19.7964 H   0  0  0  0  0  0  0  0  0  0  0  0
   12.8143   -5.0857   19.3153 H   0  0  0  0  0  0  0  0  0  0  0  0
    3.3473   -7.5463   27.2845 H   0  0  0  0  0  0  0  0  0  0  0  0
    1.3326   -7.1554   28.6727 H   0  0  0  0  0  0  0  0  0  0  0  0
    0.6499   -4.8650   29.2911 H   0  0  0  0  0  0  0  0  0  0  0  0
    1.3753   -2.0233   28.9038 H   0  0  0  0  0  0  0  0  0  0  0  0
    3.4963   -0.9205   27.6154 H   0  0  0  0  0  0  0  0  0  0  0  0
    4.8482   -2.7984   26.6781 H   0  0  0  0  0  0  0  0  0  0  0  0
  1  2  2  0
  2  3  1  0
  2  4  1  0
  4  5  1  0
  5  6  1  0
  6  7  1  0
  7  8  1  0
  8  9  1  0
  9 10  2  0
  9 11  1  0
 11 12  1  0
 12 13  1  0
 13 14  2  0
 14 15  1  0
 15 16  2  0
 16 17  1  0
 17 18  2  0
  5 19  1  0
 19 20  2  0
 20 21  1  0
 21 22  2  0
 22 23  1  0
 23 24  1  0
 24 25  2  0
 25 26  1  0
 26 27  1  0
 18 13  1  0
 27 19  1  0
 27 23  2  0
  3 28  1  0
  4 29  1  0
  4 30  1  0
  5 31  1  0
  6 32  1  0
  6 33  1  0
  7 34  1  0
  7 35  1  0
  8 36  1  0
 12 37  1  0
 12 38  1  0
 14 39  1  0
 15 40  1  0
 16 41  1  0
 17 42  1  0
 18 43  1  0
 20 44  1  0
 21 45  1  0
 22 46  1  0
 24 47  1  0
 25 48  1  0
 26 49  1  0
M  END
>  <Energy>  (917) 
189.10068787619986

>  <compound_id>  (917) 
52456

>  <target_id>  (917) 
1

>  <reference_id>  (917) 
40

>  <inspiration_ids>  (917) 
[40, 76]

>  <energy_score>  (917) 
187.34981807185477

>  <distance_score>  (917) 
6.1167143794210554

>  <path>  (917) 
/opt/xchem-fragalysis-2/maxwin/BulkDock/SCRATCH/511024/C52456-P40/C52456-P40.minimised.mol

>  <scratch_subdir>  (917) 
/opt/xchem-fragalysis-2/maxwin/BulkDock/SCRATCH/511024/C52456-P40

>  <fragmenstein_runtime>  (917) 
16.12472629547119

>  <fragmenstein_outcome>  (917) 
too moved

>  <fragmenstein_mode>  (917) 
expansion

>  <fragmenstein_error>  (917) 


$$$$
C52456-P76
     RDKit          3D

 49 51  0  0  0  0  0  0  0  0999 V2000
   -3.5264  -17.2111   37.8601 O   0  0  0  0  0  0  0  0  0  0  0  0
   -2.7974  -16.2586   37.6432 C   0  0  0  0  0  0  0  0  0  0  0  0
   -2.6596  -15.2789   38.5563 O   0  0  0  0  0  0  0  0  0  0  0  0
   -1.9983  -16.0127   36.3975 C   0  0  0  0  0  0  0  0  0  0  0  0
   -2.8936  -15.6920   35.1830 C   0  0  0  0  0  0  0  0  0  0  0  0
   -4.2493  -14.6722   35.4695 C   0  0  0  0  0  0  0  0  0  0  0  0
   -4.4444  -12.9690   35.9611 C   0  0  0  0  0  0  0  0  0  0  0  0
   -3.5311  -11.6583   35.1497 N   0  0  0  0  0  0  0  0  0  0  0  0
   -3.6465  -10.0385   35.2487 C   0  0  0  0  0  0  0  0  0  0  0  0
   -4.3384   -9.3336   35.9707 O   0  0  0  0  0  0  0  0  0  0  0  0
   -2.7003   -9.4559   34.3117 O   0  0  0  0  0  0  0  0  0  0  0  0
   -2.4536   -7.9893   34.3050 C   0  0  0  0  0  0  0  0  0  0  0  0
   -1.6825   -7.3128   33.0865 C   0  0  0  0  0  0  0  0  0  0  0  0
   -1.6547   -7.8208   31.7876 C   0  0  0  0  0  0  0  0  0  0  0  0
   -0.9548   -7.1772   30.7243 C   0  0  0  0  0  0  0  0  0  0  0  0
   -0.2907   -5.9730   30.9203 C   0  0  0  0  0  0  0  0  0  0  0  0
   -0.3327   -5.4157   32.1876 C   0  0  0  0  0  0  0  0  0  0  0  0
   -1.0167   -6.0739   33.2444 C   0  0  0  0  0  0  0  0  0  0  0  0
   -2.0772  -15.7541   33.7880 C   0  0  0  0  0  0  0  0  0  0  0  0
   -2.7010  -16.5328   32.7777 C   0  0  0  0  0  0  0  0  0  0  0  0
   -2.2042  -16.6971   31.4749 C   0  0  0  0  0  0  0  0  0  0  0  0
   -1.0515  -16.0457   31.0572 C   0  0  0  0  0  0  0  0  0  0  0  0
   -0.3306  -15.3129   32.0044 C   0  0  0  0  0  0  0  0  0  0  0  0
    0.8530  -14.5281   31.8810 C   0  0  0  0  0  0  0  0  0  0  0  0
    1.2286  -14.1815   33.1486 C   0  0  0  0  0  0  0  0  0  0  0  0
    0.3507  -14.8014   34.0024 N   0  0  0  0  0  0  0  0  0  0  0  0
   -0.7796  -15.2747   33.3444 C   0  0  0  0  0  0  0  0  0  0  0  0
   -3.2312  -15.5720   39.2983 H   0  0  0  0  0  0  0  0  0  0  0  0
   -1.4267  -16.9314   36.2069 H   0  0  0  0  0  0  0  0  0  0  0  0
   -1.2352  -15.2627   36.6038 H   0  0  0  0  0  0  0  0  0  0  0  0
   -3.4596  -16.6387   35.1098 H   0  0  0  0  0  0  0  0  0  0  0  0
   -4.8889  -14.8276   34.6082 H   0  0  0  0  0  0  0  0  0  0  0  0
   -4.7951  -15.1796   36.2792 H   0  0  0  0  0  0  0  0  0  0  0  0
   -4.2309  -12.9831   37.0326 H   0  0  0  0  0  0  0  0  0  0  0  0
   -5.5175  -12.9059   35.7393 H   0  0  0  0  0  0  0  0  0  0  0  0
   -2.9323  -11.9037   34.3954 H   0  0  0  0  0  0  0  0  0  0  0  0
   -3.4082   -7.4914   34.4432 H   0  0  0  0  0  0  0  0  0  0  0  0
   -1.8565   -7.7867   35.1984 H   0  0  0  0  0  0  0  0  0  0  0  0
   -2.1563   -8.7711   31.6277 H   0  0  0  0  0  0  0  0  0  0  0  0
   -0.8928   -7.6449   29.7461 H   0  0  0  0  0  0  0  0  0  0  0  0
    0.2602   -5.4981   30.1167 H   0  0  0  0  0  0  0  0  0  0  0  0
    0.1800   -4.4792   32.3907 H   0  0  0  0  0  0  0  0  0  0  0  0
   -1.0189   -5.5940   34.2239 H   0  0  0  0  0  0  0  0  0  0  0  0
   -3.6481  -17.0276   33.0016 H   0  0  0  0  0  0  0  0  0  0  0  0
   -2.7644  -17.3010   30.7640 H   0  0  0  0  0  0  0  0  0  0  0  0
   -0.7132  -16.1243   30.0288 H   0  0  0  0  0  0  0  0  0  0  0  0
    1.3923  -14.3108   30.9688 H   0  0  0  0  0  0  0  0  0  0  0  0
    2.0849  -13.6424   33.5306 H   0  0  0  0  0  0  0  0  0  0  0  0
    0.4827  -14.8457   35.0021 H   0  0  0  0  0  0  0  0  0  0  0  0
  1  2  2  0
  2  3  1  0
  2  4  1  0
  4  5  1  0
  5  6  1  0
  6  7  1  0
  7  8  1  0
  8  9  1  0
  9 10  2  0
  9 11  1  0
 11 12  1  0
 12 13  1  0
 13 14  2  0
 14 15  1  0
 15 16  2  0
 16 17  1  0
 17 18  2  0
  5 19  1  0
 19 20  2  0
 20 21  1  0
 21 22  2  0
 22 23  1  0
 23 24  1  0
 24 25  2  0
 25 26  1  0
 26 27  1  0
 18 13  1  0
 27 19  1  0
 27 23  2  0
  3 28  1  0
  4 29  1  0
  4 30  1  0
  5 31  1  0
  6 32  1  0
  6 33  1  0
  7 34  1  0
  7 35  1  0
  8 36  1  0
 12 37  1  0
 12 38  1  0
 14 39  1  0
 15 40  1  0
 16 41  1  0
 17 42  1  0
 18 43  1  0
 20 44  1  0
 21 45  1  0
 22 46  1  0
 24 47  1  0
 25 48  1  0
 26 49  1  0
M  END
>  <Energy>  (918) 
87.335325638660805

>  <compound_id>  (918) 
52456

>  <target_id>  (918) 
1

>  <reference_id>  (918) 
76

>  <inspiration_ids>  (918) 
[40, 76]

>  <energy_score>  (918) 
85.58445583432206

>  <distance_score>  (918) 
16.214214636370247

>  <path>  (918) 
/opt/xchem-fragalysis-2/maxwin/BulkDock/SCRATCH/511024/C52456-P76/C52456-P76.minimised.mol

>  <scratch_subdir>  (918) 
/opt/xchem-fragalysis-2/maxwin/BulkDock/SCRATCH/511024/C52456-P76

>  <fragmenstein_runtime>  (918) 
20.503862142562866

>  <fragmenstein_outcome>  (918) 
too moved

>  <fragmenstein_mode>  (918) 
expansion

>  <fragmenstein_error>  (918) 


$$$$
C52457-P40
     RDKit          3D

 52 54  0  0  0  0  0  0  0  0999 V2000
   -0.0202   -0.7904   27.9620 C   0  0  0  0  0  0  0  0  0  0  0  0
    0.7146   -1.9720   28.3491 N   0  0  0  0  0  0  0  0  0  0  0  0
    0.0438   -3.1082   28.7442 C   0  0  0  0  0  0  0  0  0  0  0  0
    0.9567   -4.1026   28.9401 C   0  0  0  0  0  0  0  0  0  0  0  0
    2.2333   -3.5525   28.6647 C   0  0  0  0  0  0  0  0  0  0  0  0
    3.5010   -4.1555   28.6909 C   0  0  0  0  0  0  0  0  0  0  0  0
    4.6179   -3.3988   28.3933 C   0  0  0  0  0  0  0  0  0  0  0  0
    4.4797   -2.0498   28.0960 C   0  0  0  0  0  0  0  0  0  0  0  0
    3.2346   -1.3562   28.0626 C   0  0  0  0  0  0  0  0  0  0  0  0
    3.3908    0.1678   27.7401 C   0  0  0  0  0  0  0  0  0  0  0  0
    3.6040    0.4320   26.2023 C   0  0  0  0  0  0  0  0  0  0  0  0
    3.6379    1.9096   25.6423 C   0  0  0  0  0  0  0  0  0  0  0  0
    3.8043    2.0283   24.1708 N   0  0  0  0  0  0  0  0  0  0  0  0
    3.9575    3.1884   23.3251 C   0  0  0  0  0  0  0  0  0  0  0  0
    3.9104    4.3544   23.5852 O   0  0  0  0  0  0  0  0  0  0  0  0
    4.2619    2.7671   22.0218 O   0  0  0  0  0  0  0  0  0  0  0  0
    4.4842    3.7746   20.9558 C   0  0  0  0  0  0  0  0  0  0  0  0
    5.6213    3.5182   19.9123 C   0  0  0  0  0  0  0  0  0  0  0  0
    6.0516    2.2424   19.5458 C   0  0  0  0  0  0  0  0  0  0  0  0
    7.1273    1.9954   18.6777 C   0  0  0  0  0  0  0  0  0  0  0  0
    7.8282    3.0606   18.1403 C   0  0  0  0  0  0  0  0  0  0  0  0
    7.4233    4.3544   18.4614 C   0  0  0  0  0  0  0  0  0  0  0  0
    6.3292    4.5794   19.3251 C   0  0  0  0  0  0  0  0  0  0  0  0
    2.3936    1.1046   28.4315 C   0  0  0  0  0  0  0  0  0  0  0  0
    3.0015    2.4184   28.8563 C   0  0  0  0  0  0  0  0  0  0  0  0
    4.1613    2.7745   28.7554 O   0  0  0  0  0  0  0  0  0  0  0  0
    2.0782    3.2414   29.3932 O   0  0  0  0  0  0  0  0  0  0  0  0
    2.0899   -2.1801   28.3330 C   0  0  0  0  0  0  0  0  0  0  0  0
    0.4761   -0.3202   27.1175 H   0  0  0  0  0  0  0  0  0  0  0  0
   -1.0328   -1.0711   27.6579 H   0  0  0  0  0  0  0  0  0  0  0  0
   -0.0819   -0.1257   28.8255 H   0  0  0  0  0  0  0  0  0  0  0  0
   -1.0363   -3.1108   28.8204 H   0  0  0  0  0  0  0  0  0  0  0  0
    0.7377   -5.1159   29.2420 H   0  0  0  0  0  0  0  0  0  0  0  0
    3.6106   -5.2066   28.9365 H   0  0  0  0  0  0  0  0  0  0  0  0
    5.6053   -3.8536   28.3944 H   0  0  0  0  0  0  0  0  0  0  0  0
    5.3993   -1.5025   27.8761 H   0  0  0  0  0  0  0  0  0  0  0  0
    4.3623    0.4250   28.1892 H   0  0  0  0  0  0  0  0  0  0  0  0
    4.5561   -0.0332   25.9090 H   0  0  0  0  0  0  0  0  0  0  0  0
    2.8602   -0.1399   25.6610 H   0  0  0  0  0  0  0  0  0  0  0  0
    2.7121    2.4377   25.8888 H   0  0  0  0  0  0  0  0  0  0  0  0
    4.4702    2.4589   26.0929 H   0  0  0  0  0  0  0  0  0  0  0  0
    3.9902    1.1876   23.6193 H   0  0  0  0  0  0  0  0  0  0  0  0
    3.5446    3.8331   20.3954 H   0  0  0  0  0  0  0  0  0  0  0  0
    4.6726    4.7506   21.4158 H   0  0  0  0  0  0  0  0  0  0  0  0
    5.5746    1.4030   20.0109 H   0  0  0  0  0  0  0  0  0  0  0  0
    7.4090    0.9709   18.4576 H   0  0  0  0  0  0  0  0  0  0  0  0
    8.6795    2.8985   17.4861 H   0  0  0  0  0  0  0  0  0  0  0  0
    7.9641    5.2043   18.0511 H   0  0  0  0  0  0  0  0  0  0  0  0
    6.0620    5.6070   19.5663 H   0  0  0  0  0  0  0  0  0  0  0  0
    2.0162    0.6434   29.3505 H   0  0  0  0  0  0  0  0  0  0  0  0
    1.5642    1.3464   27.7628 H   0  0  0  0  0  0  0  0  0  0  0  0
    2.5844    4.0494   29.6245 H   0  0  0  0  0  0  0  0  0  0  0  0
  1  2  1  0
  2  3  1  0
  3  4  2  0
  4  5  1  0
  5  6  2  0
  6  7  1  0
  7  8  2  0
  8  9  1  0
  9 10  1  0
 10 11  1  0
 11 12  1  0
 12 13  1  0
 13 14  1  0
 14 15  2  0
 14 16  1  0
 16 17  1  0
 17 18  1  0
 18 19  2  0
 19 20  1  0
 20 21  2  0
 21 22  1  0
 22 23  2  0
 10 24  1  0
 24 25  1  0
 25 26  2  0
 25 27  1  0
  9 28  2  0
 28  2  1  0
 28  5  1  0
 23 18  1  0
  1 29  1  0
  1 30  1  0
  1 31  1  0
  3 32  1  0
  4 33  1  0
  6 34  1  0
  7 35  1  0
  8 36  1  0
 10 37  1  0
 11 38  1  0
 11 39  1  0
 12 40  1  0
 12 41  1  0
 13 42  1  0
 17 43  1  0
 17 44  1  0
 19 45  1  0
 20 46  1  0
 21 47  1  0
 22 48  1  0
 23 49  1  0
 24 50  1  0
 24 51  1  0
 27 52  1  0
M  END
>  <Energy>  (919) 
-14.583477756969838

>  <compound_id>  (919) 
52457

>  <target_id>  (919) 
1

>  <reference_id>  (919) 
40

>  <inspiration_ids>  (919) 
[40, 76]

>  <energy_score>  (919) 
-26.034960453742315

>  <distance_score>  (919) 
7.837392244636888

>  <path>  (919) 
/opt/xchem-fragalysis-2/maxwin/BulkDock/SCRATCH/511024/C52457-P40/C52457-P40.minimised.mol

>  <scratch_subdir>  (919) 
/opt/xchem-fragalysis-2/maxwin/BulkDock/SCRATCH/511024/C52457-P40

>  <fragmenstein_runtime>  (919) 
36.07110023498535

>  <fragmenstein_outcome>  (919) 
too moved

>  <fragmenstein_mode>  (919) 
expansion

>  <fragmenstein_error>  (919) 


$$$$
C52457-P76
     RDKit          3D

 52 54  0  0  0  0  0  0  0  0999 V2000
    0.5895   -1.0748   27.8856 C   0  0  0  0  0  0  0  0  0  0  0  0
    1.0534   -2.3368   28.4104 N   0  0  0  0  0  0  0  0  0  0  0  0
    0.1811   -3.2680   28.9215 C   0  0  0  0  0  0  0  0  0  0  0  0
    0.8745   -4.0255   29.8280 C   0  0  0  0  0  0  0  0  0  0  0  0
    2.2279   -3.5954   29.7863 C   0  0  0  0  0  0  0  0  0  0  0  0
    3.3520   -3.9780   30.5357 C   0  0  0  0  0  0  0  0  0  0  0  0
    4.5939   -3.4498   30.2101 C   0  0  0  0  0  0  0  0  0  0  0  0
    4.7310   -2.6136   29.1045 C   0  0  0  0  0  0  0  0  0  0  0  0
    3.6391   -2.1972   28.2958 C   0  0  0  0  0  0  0  0  0  0  0  0
    4.0113   -1.3845   27.0182 C   0  0  0  0  0  0  0  0  0  0  0  0
    3.2387   -1.8120   25.7365 C   0  0  0  0  0  0  0  0  0  0  0  0
    3.9381   -2.2866   24.3986 C   0  0  0  0  0  0  0  0  0  0  0  0
    4.4888   -1.3013   23.5009 N   0  0  0  0  0  0  0  0  0  0  0  0
    5.2918   -1.4814   22.0328 C   0  0  0  0  0  0  0  0  0  0  0  0
    5.6490   -2.4868   21.4600 O   0  0  0  0  0  0  0  0  0  0  0  0
    5.6472    0.0175   21.2299 O   0  0  0  0  0  0  0  0  0  0  0  0
    6.7198    0.4218   20.0565 C   0  0  0  0  0  0  0  0  0  0  0  0
    6.6791    0.9820   18.6065 C   0  0  0  0  0  0  0  0  0  0  0  0
    6.0464    0.3760   17.5157 C   0  0  0  0  0  0  0  0  0  0  0  0
    6.2903    0.7921   16.1990 C   0  0  0  0  0  0  0  0  0  0  0  0
    7.1712    1.8368   15.9384 C   0  0  0  0  0  0  0  0  0  0  0  0
    7.8204    2.4621   16.9942 C   0  0  0  0  0  0  0  0  0  0  0  0
    7.5864    2.0299   18.3044 C   0  0  0  0  0  0  0  0  0  0  0  0
    3.8573    0.1257   27.2686 C   0  0  0  0  0  0  0  0  0  0  0  0
    5.0255    0.7272   28.0093 C   0  0  0  0  0  0  0  0  0  0  0  0
    5.9142    1.3695   27.4689 O   0  0  0  0  0  0  0  0  0  0  0  0
    4.9848    0.5361   29.3460 O   0  0  0  0  0  0  0  0  0  0  0  0
    2.3611   -2.6473   28.7513 C   0  0  0  0  0  0  0  0  0  0  0  0
   -0.4843   -1.1256   27.6903 H   0  0  0  0  0  0  0  0  0  0  0  0
    1.1185   -0.8398   26.9739 H   0  0  0  0  0  0  0  0  0  0  0  0
    0.7787   -0.3062   28.6401 H   0  0  0  0  0  0  0  0  0  0  0  0
   -0.8730   -3.2431   28.6756 H   0  0  0  0  0  0  0  0  0  0  0  0
    0.4609   -4.7909   30.4722 H   0  0  0  0  0  0  0  0  0  0  0  0
    3.2479   -4.6775   31.3605 H   0  0  0  0  0  0  0  0  0  0  0  0
    5.4723   -3.7307   30.7856 H   0  0  0  0  0  0  0  0  0  0  0  0
    5.7420   -2.3002   28.8324 H   0  0  0  0  0  0  0  0  0  0  0  0
    5.0726   -1.5600   26.8112 H   0  0  0  0  0  0  0  0  0  0  0  0
    2.6229   -2.6588   26.0359 H   0  0  0  0  0  0  0  0  0  0  0  0
    2.5911   -0.9904   25.4516 H   0  0  0  0  0  0  0  0  0  0  0  0
    4.7335   -2.8892   24.6891 H   0  0  0  0  0  0  0  0  0  0  0  0
    3.1690   -2.7874   23.8228 H   0  0  0  0  0  0  0  0  0  0  0  0
    4.2600   -0.3164   23.6529 H   0  0  0  0  0  0  0  0  0  0  0  0
    7.1374    1.3068   20.5537 H   0  0  0  0  0  0  0  0  0  0  0  0
    7.4330   -0.4083   20.0141 H   0  0  0  0  0  0  0  0  0  0  0  0
    5.3733   -0.4639   17.6494 H   0  0  0  0  0  0  0  0  0  0  0  0
    5.7771    0.2973   15.3762 H   0  0  0  0  0  0  0  0  0  0  0  0
    7.3422    2.1668   14.9168 H   0  0  0  0  0  0  0  0  0  0  0  0
    8.5160    3.2762   16.8042 H   0  0  0  0  0  0  0  0  0  0  0  0
    8.1455    2.5171   19.1031 H   0  0  0  0  0  0  0  0  0  0  0  0
    2.9397    0.3831   27.8051 H   0  0  0  0  0  0  0  0  0  0  0  0
    3.8086    0.6645   26.3130 H   0  0  0  0  0  0  0  0  0  0  0  0
    4.2470   -0.0365   29.6375 H   0  0  0  0  0  0  0  0  0  0  0  0
  1  2  1  0
  2  3  1  0
  3  4  2  0
  4  5  1  0
  5  6  2  0
  6  7  1  0
  7  8  2  0
  8  9  1  0
  9 10  1  0
 10 11  1  0
 11 12  1  0
 12 13  1  0
 13 14  1  0
 14 15  2  0
 14 16  1  0
 16 17  1  0
 17 18  1  0
 18 19  2  0
 19 20  1  0
 20 21  2  0
 21 22  1  0
 22 23  2  0
 10 24  1  0
 24 25  1  0
 25 26  2  0
 25 27  1  0
  9 28  2  0
 28  2  1  0
 28  5  1  0
 23 18  1  0
  1 29  1  0
  1 30  1  0
  1 31  1  0
  3 32  1  0
  4 33  1  0
  6 34  1  0
  7 35  1  0
  8 36  1  0
 10 37  1  0
 11 38  1  0
 11 39  1  0
 12 40  1  0
 12 41  1  0
 13 42  1  0
 17 43  1  0
 17 44  1  0
 19 45  1  0
 20 46  1  0
 21 47  1  0
 22 48  1  0
 23 49  1  0
 24 50  1  0
 24 51  1  0
 27 52  1  0
M  END
>  <Energy>  (920) 
104.80154326628748

>  <compound_id>  (920) 
52457

>  <target_id>  (920) 
1

>  <reference_id>  (920) 
76

>  <inspiration_ids>  (920) 
[40, 76]

>  <energy_score>  (920) 
93.35006056951619

>  <distance_score>  (920) 
6.828078337246356

>  <path>  (920) 
/opt/xchem-fragalysis-2/maxwin/BulkDock/SCRATCH/511024/C52457-P76/C52457-P76.minimised.mol

>  <scratch_subdir>  (920) 
/opt/xchem-fragalysis-2/maxwin/BulkDock/SCRATCH/511024/C52457-P76

>  <fragmenstein_runtime>  (920) 
29.472224473953247

>  <fragmenstein_outcome>  (920) 
too moved

>  <fragmenstein_mode>  (920) 
expansion

>  <fragmenstein_error>  (920) 


$$$$
C52461-P40
     RDKit          3D

 41 43  0  0  0  0  0  0  0  0999 V2000
   11.5574   -3.6288   22.2078 C   0  0  0  0  0  0  0  0  0  0  0  0
   10.9566   -4.7429   21.4105 N   0  0  0  0  0  0  0  0  0  0  0  0
    9.3432   -4.7433   20.5435 C   0  0  0  0  0  0  0  0  0  0  0  0
    7.5709   -4.2950   21.6100 C   0  0  0  0  0  0  0  0  0  0  0  0
    7.0380   -3.2610   21.1847 O   0  0  0  0  0  0  0  0  0  0  0  0
    7.0703   -5.2933   23.0988 N   0  0  0  0  0  0  0  0  0  0  0  0
    6.0994   -6.4239   22.9678 C   0  0  0  0  0  0  0  0  0  0  0  0
    5.8482   -4.9698   24.3357 C   0  0  0  0  0  0  0  0  0  0  0  0
    5.4846   -3.6792   24.8379 C   0  0  0  0  0  0  0  0  0  0  0  0
    4.6030   -3.4088   25.9249 C   0  0  0  0  0  0  0  0  0  0  0  0
    4.0893   -4.4689   26.6672 C   0  0  0  0  0  0  0  0  0  0  0  0
    3.1536   -4.6035   27.7263 C   0  0  0  0  0  0  0  0  0  0  0  0
    3.1460   -5.9271   28.1028 C   0  0  0  0  0  0  0  0  0  0  0  0
    4.0831   -6.5764   27.3431 N   0  0  0  0  0  0  0  0  0  0  0  0
    4.6144   -5.7216   26.4073 C   0  0  0  0  0  0  0  0  0  0  0  0
    5.5562   -5.9543   25.3739 C   0  0  0  0  0  0  0  0  0  0  0  0
   12.1968   -5.3082   20.9183 C   0  0  0  0  0  0  0  0  0  0  0  0
   12.8841   -6.1735   21.7940 C   0  0  0  0  0  0  0  0  0  0  0  0
   14.2610   -6.4117   21.6653 C   0  0  0  0  0  0  0  0  0  0  0  0
   14.9888   -5.8179   20.6380 C   0  0  0  0  0  0  0  0  0  0  0  0
   14.3405   -4.9858   19.7420 C   0  0  0  0  0  0  0  0  0  0  0  0
   12.9714   -4.7307   19.8860 C   0  0  0  0  0  0  0  0  0  0  0  0
   12.2764   -4.0221   22.9446 H   0  0  0  0  0  0  0  0  0  0  0  0
   12.1285   -2.9384   21.5878 H   0  0  0  0  0  0  0  0  0  0  0  0
   10.8957   -3.0922   22.8739 H   0  0  0  0  0  0  0  0  0  0  0  0
    8.9152   -3.9077   20.0379 H   0  0  0  0  0  0  0  0  0  0  0  0
    9.6862   -5.5117   19.8163 H   0  0  0  0  0  0  0  0  0  0  0  0
    6.3205   -6.8637   22.0193 H   0  0  0  0  0  0  0  0  0  0  0  0
    5.0773   -6.6311   23.2933 H   0  0  0  0  0  0  0  0  0  0  0  0
    6.6398   -7.1301   23.6124 H   0  0  0  0  0  0  0  0  0  0  0  0
    5.7958   -2.7795   24.3116 H   0  0  0  0  0  0  0  0  0  0  0  0
    4.3329   -2.3798   26.1460 H   0  0  0  0  0  0  0  0  0  0  0  0
    2.5701   -3.8083   28.1736 H   0  0  0  0  0  0  0  0  0  0  0  0
    2.5925   -6.4381   28.8747 H   0  0  0  0  0  0  0  0  0  0  0  0
    4.3467   -7.5470   27.4232 H   0  0  0  0  0  0  0  0  0  0  0  0
    6.0081   -6.9424   25.3666 H   0  0  0  0  0  0  0  0  0  0  0  0
   12.3584   -6.6001   22.6438 H   0  0  0  0  0  0  0  0  0  0  0  0
   14.7628   -7.0628   22.3757 H   0  0  0  0  0  0  0  0  0  0  0  0
   16.0496   -6.0197   20.5270 H   0  0  0  0  0  0  0  0  0  0  0  0
   14.8890   -4.5321   18.9219 H   0  0  0  0  0  0  0  0  0  0  0  0
   12.5588   -4.0208   19.1833 H   0  0  0  0  0  0  0  0  0  0  0  0
  1  2  1  0
  2  3  1  0
  3  4  1  0
  4  5  2  0
  4  6  1  0
  6  7  1  0
  6  8  1  0
  8  9  2  0
  9 10  1  0
 10 11  2  0
 11 12  1  0
 12 13  2  0
 13 14  1  0
 14 15  1  0
 15 16  2  0
  2 17  1  0
 17 18  2  0
 18 19  1  0
 19 20  2  0
 20 21  1  0
 21 22  2  0
 16  8  1  0
 22 17  1  0
 15 11  1  0
  1 23  1  0
  1 24  1  0
  1 25  1  0
  3 26  1  0
  3 27  1  0
  7 28  1  0
  7 29  1  0
  7 30  1  0
  9 31  1  0
 10 32  1  0
 12 33  1  0
 13 34  1  0
 14 35  1  0
 16 36  1  0
 18 37  1  0
 19 38  1  0
 20 39  1  0
 21 40  1  0
 22 41  1  0
M  END
>  <Energy>  (921) 
470.44899782130881

>  <compound_id>  (921) 
52461

>  <target_id>  (921) 
1

>  <reference_id>  (921) 
40

>  <inspiration_ids>  (921) 
[40, 76]

>  <energy_score>  (921) 
360.1278166841398

>  <distance_score>  (921) 
6.942957919671746

>  <path>  (921) 
/opt/xchem-fragalysis-2/maxwin/BulkDock/SCRATCH/511024/C52461-P40/C52461-P40.minimised.mol

>  <scratch_subdir>  (921) 
/opt/xchem-fragalysis-2/maxwin/BulkDock/SCRATCH/511024/C52461-P40

>  <fragmenstein_runtime>  (921) 
12.386099576950073

>  <fragmenstein_outcome>  (921) 
too moved

>  <fragmenstein_mode>  (921) 
expansion

>  <fragmenstein_error>  (921) 


$$$$
C52461-P76
     RDKit          3D

 41 43  0  0  0  0  0  0  0  0999 V2000
    7.9866   -4.5226   20.2350 C   0  0  0  0  0  0  0  0  0  0  0  0
    6.8868   -5.3934   19.9335 N   0  0  0  0  0  0  0  0  0  0  0  0
    6.8763   -6.3906   21.6824 C   0  0  0  0  0  0  0  0  0  0  0  0
    6.6122   -6.9053   23.4759 C   0  0  0  0  0  0  0  0  0  0  0  0
    5.4674   -6.7366   23.7841 O   0  0  0  0  0  0  0  0  0  0  0  0
    7.8342   -7.5151   24.5783 N   0  0  0  0  0  0  0  0  0  0  0  0
    7.9758   -9.1064   24.5703 C   0  0  0  0  0  0  0  0  0  0  0  0
    7.7592   -7.8616   26.2015 C   0  0  0  0  0  0  0  0  0  0  0  0
    6.6520   -8.5046   26.7972 C   0  0  0  0  0  0  0  0  0  0  0  0
    6.4832   -8.6405   28.1765 C   0  0  0  0  0  0  0  0  0  0  0  0
    7.2845   -7.8387   28.9921 C   0  0  0  0  0  0  0  0  0  0  0  0
    7.2743   -7.5280   30.3760 C   0  0  0  0  0  0  0  0  0  0  0  0
    8.2322   -6.5671   30.5889 C   0  0  0  0  0  0  0  0  0  0  0  0
    8.8668   -6.3295   29.3999 N   0  0  0  0  0  0  0  0  0  0  0  0
    8.3255   -7.1149   28.4074 C   0  0  0  0  0  0  0  0  0  0  0  0
    8.6626   -7.1936   27.0430 C   0  0  0  0  0  0  0  0  0  0  0  0
    5.8927   -5.4699   18.5869 C   0  0  0  0  0  0  0  0  0  0  0  0
    6.0751   -6.0863   17.3663 C   0  0  0  0  0  0  0  0  0  0  0  0
    5.0926   -6.8261   16.5997 C   0  0  0  0  0  0  0  0  0  0  0  0
    3.7485   -6.6756   16.7972 C   0  0  0  0  0  0  0  0  0  0  0  0
    3.4129   -5.8119   17.7843 C   0  0  0  0  0  0  0  0  0  0  0  0
    4.4514   -5.3274   18.6261 C   0  0  0  0  0  0  0  0  0  0  0  0
    7.8796   -3.9265   21.1338 H   0  0  0  0  0  0  0  0  0  0  0  0
    8.9476   -4.9926   20.0460 H   0  0  0  0  0  0  0  0  0  0  0  0
    8.5412   -3.9940   19.5671 H   0  0  0  0  0  0  0  0  0  0  0  0
    7.4823   -5.6089   22.1720 H   0  0  0  0  0  0  0  0  0  0  0  0
    6.8032   -7.2799   21.1280 H   0  0  0  0  0  0  0  0  0  0  0  0
    7.2183   -9.7238   25.0604 H   0  0  0  0  0  0  0  0  0  0  0  0
    8.9921   -9.3728   24.8997 H   0  0  0  0  0  0  0  0  0  0  0  0
    7.8577   -9.4956   23.6212 H   0  0  0  0  0  0  0  0  0  0  0  0
    5.8442   -8.8280   26.1608 H   0  0  0  0  0  0  0  0  0  0  0  0
    5.6592   -9.2199   28.5711 H   0  0  0  0  0  0  0  0  0  0  0  0
    6.6229   -7.9245   31.1419 H   0  0  0  0  0  0  0  0  0  0  0  0
    8.5282   -6.0391   31.4863 H   0  0  0  0  0  0  0  0  0  0  0  0
    9.6149   -5.6622   29.2610 H   0  0  0  0  0  0  0  0  0  0  0  0
    9.4703   -6.5934   26.6330 H   0  0  0  0  0  0  0  0  0  0  0  0
    6.9820   -6.0572   16.8340 H   0  0  0  0  0  0  0  0  0  0  0  0
    5.4182   -7.4367   15.7554 H   0  0  0  0  0  0  0  0  0  0  0  0
    3.0124   -7.1679   16.1748 H   0  0  0  0  0  0  0  0  0  0  0  0
    2.3759   -5.6020   18.0267 H   0  0  0  0  0  0  0  0  0  0  0  0
    4.0385   -4.8815   19.4930 H   0  0  0  0  0  0  0  0  0  0  0  0
  1  2  1  0
  2  3  1  0
  3  4  1  0
  4  5  2  0
  4  6  1  0
  6  7  1  0
  6  8  1  0
  8  9  2  0
  9 10  1  0
 10 11  2  0
 11 12  1  0
 12 13  2  0
 13 14  1  0
 14 15  1  0
 15 16  2  0
  2 17  1  0
 17 18  2  0
 18 19  1  0
 19 20  2  0
 20 21  1  0
 21 22  2  0
 16  8  1  0
 22 17  1  0
 15 11  1  0
  1 23  1  0
  1 24  1  0
  1 25  1  0
  3 26  1  0
  3 27  1  0
  7 28  1  0
  7 29  1  0
  7 30  1  0
  9 31  1  0
 10 32  1  0
 12 33  1  0
 13 34  1  0
 14 35  1  0
 16 36  1  0
 18 37  1  0
 19 38  1  0
 20 39  1  0
 21 40  1  0
 22 41  1  0
M  END
>  <Energy>  (922) 
562.64832386451565

>  <compound_id>  (922) 
52461

>  <target_id>  (922) 
1

>  <reference_id>  (922) 
76

>  <inspiration_ids>  (922) 
[40, 76]

>  <energy_score>  (922) 
452.3271427273489

>  <distance_score>  (922) 
8.311431637288745

>  <path>  (922) 
/opt/xchem-fragalysis-2/maxwin/BulkDock/SCRATCH/511024/C52461-P76/C52461-P76.minimised.mol

>  <scratch_subdir>  (922) 
/opt/xchem-fragalysis-2/maxwin/BulkDock/SCRATCH/511024/C52461-P76

>  <fragmenstein_runtime>  (922) 
11.22533392906189

>  <fragmenstein_outcome>  (922) 
too moved

>  <fragmenstein_mode>  (922) 
expansion

>  <fragmenstein_error>  (922) 


$$$$
C52465-P40
     RDKit          3D

 52 54  0  0  0  0  0  0  0  0999 V2000
    8.1429    0.8580   17.1294 C   0  0  0  0  0  0  0  0  0  0  0  0
    7.1676    1.4391   17.9900 O   0  0  0  0  0  0  0  0  0  0  0  0
    7.2401    2.8730   18.1960 C   0  0  0  0  0  0  0  0  0  0  0  0
    8.4096    3.1708   19.1332 C   0  0  0  0  0  0  0  0  0  0  0  0
    5.8020    3.3612   18.8049 C   0  0  0  0  0  0  0  0  0  0  0  0
    5.2790    2.9575   20.1446 N   0  0  0  0  0  0  0  0  0  0  0  0
    4.2617    3.6738   21.1018 C   0  0  0  0  0  0  0  0  0  0  0  0
    3.7518    4.7318   20.9949 O   0  0  0  0  0  0  0  0  0  0  0  0
    4.2011    2.6638   22.2485 N   0  0  0  0  0  0  0  0  0  0  0  0
    3.5882    2.7543   23.5536 C   0  0  0  0  0  0  0  0  0  0  0  0
    2.6783    3.7254   23.9408 C   0  0  0  0  0  0  0  0  0  0  0  0
    2.0052    3.6615   25.1941 C   0  0  0  0  0  0  0  0  0  0  0  0
    2.2621    2.5860   26.0653 C   0  0  0  0  0  0  0  0  0  0  0  0
    1.7136    2.2276   27.2782 N   0  0  0  0  0  0  0  0  0  0  0  0
    2.2492    1.0393   27.7149 C   0  0  0  0  0  0  0  0  0  0  0  0
    3.1855    0.6369   26.7916 C   0  0  0  0  0  0  0  0  0  0  0  0
    3.1913    1.6074   25.7494 C   0  0  0  0  0  0  0  0  0  0  0  0
    3.8595    1.7309   24.5132 C   0  0  0  0  0  0  0  0  0  0  0  0
    7.4518    3.6502   16.8382 C   0  0  0  0  0  0  0  0  0  0  0  0
    8.7140    3.3907   16.2000 O   0  0  0  0  0  0  0  0  0  0  0  0
    8.8409    4.0913   14.9610 C   0  0  0  0  0  0  0  0  0  0  0  0
    9.8236    3.3644   14.0764 C   0  0  0  0  0  0  0  0  0  0  0  0
   11.0422    2.9046   14.5938 C   0  0  0  0  0  0  0  0  0  0  0  0
   11.9647    2.2504   13.7770 C   0  0  0  0  0  0  0  0  0  0  0  0
   11.6849    2.0636   12.4255 C   0  0  0  0  0  0  0  0  0  0  0  0
   10.4833    2.5268   11.8923 C   0  0  0  0  0  0  0  0  0  0  0  0
    9.5572    3.1752   12.7127 C   0  0  0  0  0  0  0  0  0  0  0  0
    7.9243    1.0934   16.0848 H   0  0  0  0  0  0  0  0  0  0  0  0
    9.1583    1.1488   17.4035 H   0  0  0  0  0  0  0  0  0  0  0  0
    8.0502   -0.2245   17.2271 H   0  0  0  0  0  0  0  0  0  0  0  0
    9.3658    3.1659   18.6069 H   0  0  0  0  0  0  0  0  0  0  0  0
    8.4828    2.3892   19.8884 H   0  0  0  0  0  0  0  0  0  0  0  0
    8.3021    4.1478   19.6134 H   0  0  0  0  0  0  0  0  0  0  0  0
    5.0257    3.0257   18.1063 H   0  0  0  0  0  0  0  0  0  0  0  0
    5.7807    4.4572   18.8078 H   0  0  0  0  0  0  0  0  0  0  0  0
    5.4577    2.0294   20.4816 H   0  0  0  0  0  0  0  0  0  0  0  0
    4.6829    1.8301   21.9825 H   0  0  0  0  0  0  0  0  0  0  0  0
    2.4363    4.5415   23.2629 H   0  0  0  0  0  0  0  0  0  0  0  0
    1.2762    4.4253   25.4502 H   0  0  0  0  0  0  0  0  0  0  0  0
    0.9903    2.7482   27.7543 H   0  0  0  0  0  0  0  0  0  0  0  0
    1.9153    0.5907   28.6404 H   0  0  0  0  0  0  0  0  0  0  0  0
    3.7818   -0.2642   26.8390 H   0  0  0  0  0  0  0  0  0  0  0  0
    4.5309    0.9113   24.2879 H   0  0  0  0  0  0  0  0  0  0  0  0
    7.3787    4.7292   17.0210 H   0  0  0  0  0  0  0  0  0  0  0  0
    6.6525    3.3528   16.1480 H   0  0  0  0  0  0  0  0  0  0  0  0
    7.8688    4.1507   14.4569 H   0  0  0  0  0  0  0  0  0  0  0  0
    9.1975    5.1081   15.1580 H   0  0  0  0  0  0  0  0  0  0  0  0
   11.2671    3.0615   15.6456 H   0  0  0  0  0  0  0  0  0  0  0  0
   12.9032    1.8933   14.1928 H   0  0  0  0  0  0  0  0  0  0  0  0
   12.4078    1.5632   11.7860 H   0  0  0  0  0  0  0  0  0  0  0  0
   10.2718    2.3906   10.8343 H   0  0  0  0  0  0  0  0  0  0  0  0
    8.6284    3.5371   12.2770 H   0  0  0  0  0  0  0  0  0  0  0  0
  1  2  1  0
  2  3  1  0
  3  4  1  0
  3  5  1  0
  5  6  1  0
  6  7  1  0
  7  8  2  0
  7  9  1  0
  9 10  1  0
 10 11  2  0
 11 12  1  0
 12 13  2  0
 13 14  1  0
 14 15  1  0
 15 16  2  0
 16 17  1  0
 17 18  2  0
  3 19  1  0
 19 20  1  0
 20 21  1  0
 21 22  1  0
 22 23  2  0
 23 24  1  0
 24 25  2  0
 25 26  1  0
 26 27  2  0
 18 10  1  0
 27 22  1  0
 17 13  1  0
  1 28  1  0
  1 29  1  0
  1 30  1  0
  4 31  1  0
  4 32  1  0
  4 33  1  0
  5 34  1  0
  5 35  1  0
  6 36  1  0
  9 37  1  0
 11 38  1  0
 12 39  1  0
 14 40  1  0
 15 41  1  0
 16 42  1  0
 18 43  1  0
 19 44  1  0
 19 45  1  0
 21 46  1  0
 21 47  1  0
 23 48  1  0
 24 49  1  0
 25 50  1  0
 26 51  1  0
 27 52  1  0
M  END
>  <Energy>  (923) 
50.274654705600241

>  <compound_id>  (923) 
52465

>  <target_id>  (923) 
1

>  <reference_id>  (923) 
40

>  <inspiration_ids>  (923) 
[40, 76]

>  <energy_score>  (923) 
-31.860053776187527

>  <distance_score>  (923) 
9.81501183146626

>  <path>  (923) 
/opt/xchem-fragalysis-2/maxwin/BulkDock/SCRATCH/511024/C52465-P40/C52465-P40.minimised.mol

>  <scratch_subdir>  (923) 
/opt/xchem-fragalysis-2/maxwin/BulkDock/SCRATCH/511024/C52465-P40

>  <fragmenstein_runtime>  (923) 
10.830861330032349

>  <fragmenstein_outcome>  (923) 
too moved

>  <fragmenstein_mode>  (923) 
expansion

>  <fragmenstein_error>  (923) 


$$$$
C52465-P76
     RDKit          3D

 52 54  0  0  0  0  0  0  0  0999 V2000
   12.2839    5.5425   18.2459 C   0  0  0  0  0  0  0  0  0  0  0  0
   10.8672    5.5504   18.0682 O   0  0  0  0  0  0  0  0  0  0  0  0
   10.3007    4.3978   17.4073 C   0  0  0  0  0  0  0  0  0  0  0  0
   10.4145    3.2132   18.3545 C   0  0  0  0  0  0  0  0  0  0  0  0
    8.7729    4.7069   17.1505 C   0  0  0  0  0  0  0  0  0  0  0  0
    7.8186    4.5992   18.2676 N   0  0  0  0  0  0  0  0  0  0  0  0
    6.6267    3.6836   18.4632 C   0  0  0  0  0  0  0  0  0  0  0  0
    6.2391    2.7941   17.7984 O   0  0  0  0  0  0  0  0  0  0  0  0
    6.0346    4.2930   19.7217 N   0  0  0  0  0  0  0  0  0  0  0  0
    4.8101    4.0270   20.3924 C   0  0  0  0  0  0  0  0  0  0  0  0
    4.4446    4.8431   21.4741 C   0  0  0  0  0  0  0  0  0  0  0  0
    3.2479    4.6523   22.1998 C   0  0  0  0  0  0  0  0  0  0  0  0
    2.4010    3.6167   21.7940 C   0  0  0  0  0  0  0  0  0  0  0  0
    1.1966    3.1928   22.3102 N   0  0  0  0  0  0  0  0  0  0  0  0
    0.6230    2.2807   21.4651 C   0  0  0  0  0  0  0  0  0  0  0  0
    1.5434    1.9918   20.4818 C   0  0  0  0  0  0  0  0  0  0  0  0
    2.6932    2.8097   20.6955 C   0  0  0  0  0  0  0  0  0  0  0  0
    3.9297    2.9982   20.0134 C   0  0  0  0  0  0  0  0  0  0  0  0
   10.9900    4.1682   16.0183 C   0  0  0  0  0  0  0  0  0  0  0  0
   12.3280    3.6750   16.1504 O   0  0  0  0  0  0  0  0  0  0  0  0
   12.9937    3.5810   14.8938 C   0  0  0  0  0  0  0  0  0  0  0  0
   14.3227    2.9096   15.1176 C   0  0  0  0  0  0  0  0  0  0  0  0
   15.3697    3.5988   15.7458 C   0  0  0  0  0  0  0  0  0  0  0  0
   16.5976    2.9731   15.9672 C   0  0  0  0  0  0  0  0  0  0  0  0
   16.7893    1.6514   15.5683 C   0  0  0  0  0  0  0  0  0  0  0  0
   15.7528    0.9530   14.9517 C   0  0  0  0  0  0  0  0  0  0  0  0
   14.5246    1.5777   14.7299 C   0  0  0  0  0  0  0  0  0  0  0  0
   12.6569    4.6080   18.6685 H   0  0  0  0  0  0  0  0  0  0  0  0
   12.5251    6.3420   18.9533 H   0  0  0  0  0  0  0  0  0  0  0  0
   12.7896    5.7865   17.3084 H   0  0  0  0  0  0  0  0  0  0  0  0
    9.7912    2.3875   18.0113 H   0  0  0  0  0  0  0  0  0  0  0  0
   10.0794    3.4845   19.3631 H   0  0  0  0  0  0  0  0  0  0  0  0
   11.4443    2.8801   18.4709 H   0  0  0  0  0  0  0  0  0  0  0  0
    8.3912    4.0265   16.3807 H   0  0  0  0  0  0  0  0  0  0  0  0
    8.6712    5.7318   16.7759 H   0  0  0  0  0  0  0  0  0  0  0  0
    7.9114    5.2002   19.0661 H   0  0  0  0  0  0  0  0  0  0  0  0
    6.5752    5.0922   19.9899 H   0  0  0  0  0  0  0  0  0  0  0  0
    5.1016    5.6524   21.7864 H   0  0  0  0  0  0  0  0  0  0  0  0
    3.0033    5.2886   23.0440 H   0  0  0  0  0  0  0  0  0  0  0  0
    0.7592    3.5867   23.1312 H   0  0  0  0  0  0  0  0  0  0  0  0
   -0.3767    1.9096   21.6439 H   0  0  0  0  0  0  0  0  0  0  0  0
    1.3944    1.2968   19.6669 H   0  0  0  0  0  0  0  0  0  0  0  0
    4.1611    2.3734   19.1564 H   0  0  0  0  0  0  0  0  0  0  0  0
   10.4080    3.4559   15.4247 H   0  0  0  0  0  0  0  0  0  0  0  0
   11.0228    5.1229   15.4784 H   0  0  0  0  0  0  0  0  0  0  0  0
   13.1517    4.5852   14.4826 H   0  0  0  0  0  0  0  0  0  0  0  0
   12.3883    3.0157   14.1760 H   0  0  0  0  0  0  0  0  0  0  0  0
   15.2260    4.6262   16.0718 H   0  0  0  0  0  0  0  0  0  0  0  0
   17.4031    3.5154   16.4550 H   0  0  0  0  0  0  0  0  0  0  0  0
   17.7446    1.1636   15.7424 H   0  0  0  0  0  0  0  0  0  0  0  0
   15.8988   -0.0799   14.6462 H   0  0  0  0  0  0  0  0  0  0  0  0
   13.7193    1.0172   14.2594 H   0  0  0  0  0  0  0  0  0  0  0  0
  1  2  1  0
  2  3  1  0
  3  4  1  0
  3  5  1  0
  5  6  1  0
  6  7  1  0
  7  8  2  0
  7  9  1  0
  9 10  1  0
 10 11  2  0
 11 12  1  0
 12 13  2  0
 13 14  1  0
 14 15  1  0
 15 16  2  0
 16 17  1  0
 17 18  2  0
  3 19  1  0
 19 20  1  0
 20 21  1  0
 21 22  1  0
 22 23  2  0
 23 24  1  0
 24 25  2  0
 25 26  1  0
 26 27  2  0
 18 10  1  0
 27 22  1  0
 17 13  1  0
  1 28  1  0
  1 29  1  0
  1 30  1  0
  4 31  1  0
  4 32  1  0
  4 33  1  0
  5 34  1  0
  5 35  1  0
  6 36  1  0
  9 37  1  0
 11 38  1  0
 12 39  1  0
 14 40  1  0
 15 41  1  0
 16 42  1  0
 18 43  1  0
 19 44  1  0
 19 45  1  0
 21 46  1  0
 21 47  1  0
 23 48  1  0
 24 49  1  0
 25 50  1  0
 26 51  1  0
 27 52  1  0
M  END
>  <Energy>  (924) 
38.298457383512677

>  <compound_id>  (924) 
52465

>  <target_id>  (924) 
1

>  <reference_id>  (924) 
76

>  <inspiration_ids>  (924) 
[40, 76]

>  <energy_score>  (924) 
-43.83625109827457

>  <distance_score>  (924) 
11.689524129718706

>  <path>  (924) 
/opt/xchem-fragalysis-2/maxwin/BulkDock/SCRATCH/511024/C52465-P76/C52465-P76.minimised.mol

>  <scratch_subdir>  (924) 
/opt/xchem-fragalysis-2/maxwin/BulkDock/SCRATCH/511024/C52465-P76

>  <fragmenstein_runtime>  (924) 
13.324792385101318

>  <fragmenstein_outcome>  (924) 
too moved

>  <fragmenstein_mode>  (924) 
expansion

>  <fragmenstein_error>  (924) 


$$$$
C52466-P40
     RDKit          3D

 50 52  0  0  0  0  0  0  0  0999 V2000
    7.8770   -4.8175   27.1071 C   0  0  0  0  0  0  0  0  0  0  0  0
    7.3381   -3.4049   27.2930 C   0  0  0  0  0  0  0  0  0  0  0  0
    5.9275   -3.2942   26.9110 N   0  0  0  0  0  0  0  0  0  0  0  0
    5.7193   -3.0105   25.4899 C   0  0  0  0  0  0  0  0  0  0  0  0
    5.9679   -4.0558   24.2800 C   0  0  0  0  0  0  0  0  0  0  0  0
    5.9688   -2.9158   22.9059 N   0  0  0  0  0  0  0  0  0  0  0  0
    6.8992   -2.9175   21.3880 C   0  0  0  0  0  0  0  0  0  0  0  0
    7.6736   -3.7608   20.9499 O   0  0  0  0  0  0  0  0  0  0  0  0
    6.6313   -1.1772   20.4498 C   0  0  0  0  0  0  0  0  0  0  0  0
    7.1574    0.2856   19.3607 C   0  0  0  0  0  0  0  0  0  0  0  0
    6.4904    1.5362   19.6331 C   0  0  0  0  0  0  0  0  0  0  0  0
    6.8439    2.8081   19.1306 C   0  0  0  0  0  0  0  0  0  0  0  0
    7.8632    2.9406   18.2241 C   0  0  0  0  0  0  0  0  0  0  0  0
    8.4375    1.7846   17.7719 C   0  0  0  0  0  0  0  0  0  0  0  0
    8.0661    0.5190   18.3038 C   0  0  0  0  0  0  0  0  0  0  0  0
    5.1889   -2.3112   27.7677 C   0  0  0  0  0  0  0  0  0  0  0  0
    4.1875   -3.1381   28.6031 C   0  0  0  0  0  0  0  0  0  0  0  0
    4.7487   -3.8124   29.6899 C   0  0  0  0  0  0  0  0  0  0  0  0
    4.7476   -5.1988   29.6500 C   0  0  0  0  0  0  0  0  0  0  0  0
    4.1264   -5.8209   28.5566 C   0  0  0  0  0  0  0  0  0  0  0  0
    4.3329   -7.0642   27.9255 C   0  0  0  0  0  0  0  0  0  0  0  0
    3.5670   -7.1049   26.7859 C   0  0  0  0  0  0  0  0  0  0  0  0
    2.9115   -5.9108   26.6961 N   0  0  0  0  0  0  0  0  0  0  0  0
    3.2876   -5.0835   27.7259 C   0  0  0  0  0  0  0  0  0  0  0  0
    3.1386   -3.7042   27.8546 C   0  0  0  0  0  0  0  0  0  0  0  0
    8.9085   -4.8713   27.4712 H   0  0  0  0  0  0  0  0  0  0  0  0
    7.2878   -5.5420   27.6783 H   0  0  0  0  0  0  0  0  0  0  0  0
    7.8830   -5.1343   26.0649 H   0  0  0  0  0  0  0  0  0  0  0  0
    7.9622   -2.6719   26.7688 H   0  0  0  0  0  0  0  0  0  0  0  0
    7.4592   -3.1870   28.3620 H   0  0  0  0  0  0  0  0  0  0  0  0
    4.6537   -2.7670   25.3645 H   0  0  0  0  0  0  0  0  0  0  0  0
    6.2133   -2.0559   25.2876 H   0  0  0  0  0  0  0  0  0  0  0  0
    5.0896   -4.6894   24.4351 H   0  0  0  0  0  0  0  0  0  0  0  0
    6.7309   -4.8312   24.2314 H   0  0  0  0  0  0  0  0  0  0  0  0
    5.3448   -2.0979   22.9382 H   0  0  0  0  0  0  0  0  0  0  0  0
    5.7403   -0.8875   21.0362 H   0  0  0  0  0  0  0  0  0  0  0  0
    7.5347   -0.8080   20.7323 H   0  0  0  0  0  0  0  0  0  0  0  0
    5.6241    1.5844   20.2866 H   0  0  0  0  0  0  0  0  0  0  0  0
    6.2966    3.6857   19.4661 H   0  0  0  0  0  0  0  0  0  0  0  0
    8.1527    3.9085   17.8309 H   0  0  0  0  0  0  0  0  0  0  0  0
    9.1759    1.8410   16.9728 H   0  0  0  0  0  0  0  0  0  0  0  0
    8.5401   -0.1641   17.6395 H   0  0  0  0  0  0  0  0  0  0  0  0
    5.8486   -1.7346   28.4285 H   0  0  0  0  0  0  0  0  0  0  0  0
    4.6301   -1.5685   27.1829 H   0  0  0  0  0  0  0  0  0  0  0  0
    5.4911   -3.3225   30.3174 H   0  0  0  0  0  0  0  0  0  0  0  0
    5.4547   -5.7420   30.2688 H   0  0  0  0  0  0  0  0  0  0  0  0
    5.0702   -7.7956   28.2268 H   0  0  0  0  0  0  0  0  0  0  0  0
    3.5078   -7.8364   25.9879 H   0  0  0  0  0  0  0  0  0  0  0  0
    2.4261   -5.6086   25.8697 H   0  0  0  0  0  0  0  0  0  0  0  0
    2.6831   -3.1337   27.0541 H   0  0  0  0  0  0  0  0  0  0  0  0
  1  2  1  0
  2  3  1  0
  3  4  1  0
  4  5  1  0
  5  6  1  0
  6  7  1  0
  7  8  2  0
  7  9  1  0
  9 10  1  0
 10 11  2  0
 11 12  1  0
 12 13  2  0
 13 14  1  0
 14 15  2  0
  3 16  1  0
 16 17  1  0
 17 18  2  0
 18 19  1  0
 19 20  2  0
 20 21  1  0
 21 22  2  0
 22 23  1  0
 23 24  1  0
 24 25  2  0
 15 10  1  0
 25 17  1  0
 24 20  1  0
  1 26  1  0
  1 27  1  0
  1 28  1  0
  2 29  1  0
  2 30  1  0
  4 31  1  0
  4 32  1  0
  5 33  1  0
  5 34  1  0
  6 35  1  0
  9 36  1  0
  9 37  1  0
 11 38  1  0
 12 39  1  0
 13 40  1  0
 14 41  1  0
 15 42  1  0
 16 43  1  0
 16 44  1  0
 18 45  1  0
 19 46  1  0
 21 47  1  0
 22 48  1  0
 23 49  1  0
 25 50  1  0
M  END
>  <Energy>  (925) 
375.34545414765529

>  <compound_id>  (925) 
52466

>  <target_id>  (925) 
1

>  <reference_id>  (925) 
40

>  <inspiration_ids>  (925) 
[40, 76]

>  <energy_score>  (925) 
272.83437425961426

>  <distance_score>  (925) 
6.233566138165435

>  <path>  (925) 
/opt/xchem-fragalysis-2/maxwin/BulkDock/SCRATCH/511024/C52466-P40/C52466-P40.minimised.mol

>  <scratch_subdir>  (925) 
/opt/xchem-fragalysis-2/maxwin/BulkDock/SCRATCH/511024/C52466-P40

>  <fragmenstein_runtime>  (925) 
17.52547264099121

>  <fragmenstein_outcome>  (925) 
too moved

>  <fragmenstein_mode>  (925) 
expansion

>  <fragmenstein_error>  (925) 


$$$$
C52466-P76
     RDKit          3D

 50 52  0  0  0  0  0  0  0  0999 V2000
    9.5971   -3.7265   30.1636 C   0  0  0  0  0  0  0  0  0  0  0  0
    8.8297   -4.5033   29.1000 C   0  0  0  0  0  0  0  0  0  0  0  0
    8.2218   -3.7107   28.0325 N   0  0  0  0  0  0  0  0  0  0  0  0
    9.3201   -3.0422   27.1121 C   0  0  0  0  0  0  0  0  0  0  0  0
   10.6909   -3.8831   26.5689 C   0  0  0  0  0  0  0  0  0  0  0  0
   11.6273   -3.3676   25.4159 N   0  0  0  0  0  0  0  0  0  0  0  0
   12.3698   -4.1797   24.2237 C   0  0  0  0  0  0  0  0  0  0  0  0
   12.3030   -5.3258   23.9189 O   0  0  0  0  0  0  0  0  0  0  0  0
   13.3828   -3.2307   23.3803 C   0  0  0  0  0  0  0  0  0  0  0  0
   13.7393   -3.4094   21.7937 C   0  0  0  0  0  0  0  0  0  0  0  0
   14.6812   -2.5138   21.1982 C   0  0  0  0  0  0  0  0  0  0  0  0
   15.0082   -2.5136   19.8203 C   0  0  0  0  0  0  0  0  0  0  0  0
   14.3990   -3.4262   18.9761 C   0  0  0  0  0  0  0  0  0  0  0  0
   13.4582   -4.2987   19.5174 C   0  0  0  0  0  0  0  0  0  0  0  0
   13.1361   -4.2974   20.8973 C   0  0  0  0  0  0  0  0  0  0  0  0
    7.1066   -2.7532   28.5480 C   0  0  0  0  0  0  0  0  0  0  0  0
    5.6297   -3.2155   29.0973 C   0  0  0  0  0  0  0  0  0  0  0  0
    5.3790   -4.0907   30.1756 C   0  0  0  0  0  0  0  0  0  0  0  0
    4.0608   -4.4595   30.5952 C   0  0  0  0  0  0  0  0  0  0  0  0
    2.9355   -4.0006   29.8838 C   0  0  0  0  0  0  0  0  0  0  0  0
    1.5478   -4.3197   29.8753 C   0  0  0  0  0  0  0  0  0  0  0  0
    0.9728   -3.6236   28.8341 C   0  0  0  0  0  0  0  0  0  0  0  0
    1.9411   -2.8332   28.2646 N   0  0  0  0  0  0  0  0  0  0  0  0
    3.1560   -3.0524   28.8848 C   0  0  0  0  0  0  0  0  0  0  0  0
    4.4651   -2.6052   28.5310 C   0  0  0  0  0  0  0  0  0  0  0  0
    8.9407   -3.0705   30.7422 H   0  0  0  0  0  0  0  0  0  0  0  0
   10.3982   -3.1216   29.7290 H   0  0  0  0  0  0  0  0  0  0  0  0
   10.0595   -4.4262   30.8682 H   0  0  0  0  0  0  0  0  0  0  0  0
    9.5047   -5.2424   28.6525 H   0  0  0  0  0  0  0  0  0  0  0  0
    8.0581   -5.1075   29.5872 H   0  0  0  0  0  0  0  0  0  0  0  0
    9.6969   -2.1557   27.6366 H   0  0  0  0  0  0  0  0  0  0  0  0
    8.7911   -2.6835   26.2237 H   0  0  0  0  0  0  0  0  0  0  0  0
   10.3751   -4.8882   26.2689 H   0  0  0  0  0  0  0  0  0  0  0  0
   11.3568   -3.9956   27.4314 H   0  0  0  0  0  0  0  0  0  0  0  0
   11.9720   -2.4171   25.4464 H   0  0  0  0  0  0  0  0  0  0  0  0
   14.3485   -3.3591   23.8890 H   0  0  0  0  0  0  0  0  0  0  0  0
   13.0805   -2.1929   23.5460 H   0  0  0  0  0  0  0  0  0  0  0  0
   15.1617   -1.7737   21.8379 H   0  0  0  0  0  0  0  0  0  0  0  0
   15.7342   -1.8022   19.4380 H   0  0  0  0  0  0  0  0  0  0  0  0
   14.6242   -3.4406   17.9148 H   0  0  0  0  0  0  0  0  0  0  0  0
   12.9145   -4.9590   18.8582 H   0  0  0  0  0  0  0  0  0  0  0  0
   12.3845   -4.9848   21.2565 H   0  0  0  0  0  0  0  0  0  0  0  0
    7.5230   -2.1003   29.3237 H   0  0  0  0  0  0  0  0  0  0  0  0
    6.8890   -2.0938   27.6986 H   0  0  0  0  0  0  0  0  0  0  0  0
    6.2206   -4.4997   30.7290 H   0  0  0  0  0  0  0  0  0  0  0  0
    3.9315   -5.1274   31.4398 H   0  0  0  0  0  0  0  0  0  0  0  0
    1.0459   -5.0303   30.5207 H   0  0  0  0  0  0  0  0  0  0  0  0
   -0.0402   -3.6053   28.4557 H   0  0  0  0  0  0  0  0  0  0  0  0
    1.8156   -2.2569   27.4400 H   0  0  0  0  0  0  0  0  0  0  0  0
    4.5797   -1.9125   27.6973 H   0  0  0  0  0  0  0  0  0  0  0  0
  1  2  1  0
  2  3  1  0
  3  4  1  0
  4  5  1  0
  5  6  1  0
  6  7  1  0
  7  8  2  0
  7  9  1  0
  9 10  1  0
 10 11  2  0
 11 12  1  0
 12 13  2  0
 13 14  1  0
 14 15  2  0
  3 16  1  0
 16 17  1  0
 17 18  2  0
 18 19  1  0
 19 20  2  0
 20 21  1  0
 21 22  2  0
 22 23  1  0
 23 24  1  0
 24 25  2  0
 15 10  1  0
 25 17  1  0
 24 20  1  0
  1 26  1  0
  1 27  1  0
  1 28  1  0
  2 29  1  0
  2 30  1  0
  4 31  1  0
  4 32  1  0
  5 33  1  0
  5 34  1  0
  6 35  1  0
  9 36  1  0
  9 37  1  0
 11 38  1  0
 12 39  1  0
 13 40  1  0
 14 41  1  0
 15 42  1  0
 16 43  1  0
 16 44  1  0
 18 45  1  0
 19 46  1  0
 21 47  1  0
 22 48  1  0
 23 49  1  0
 25 50  1  0
M  END
>  <Energy>  (926) 
141.13779165085305

>  <compound_id>  (926) 
52466

>  <target_id>  (926) 
1

>  <reference_id>  (926) 
76

>  <inspiration_ids>  (926) 
[40, 76]

>  <energy_score>  (926) 
53.98243901626324

>  <distance_score>  (926) 
5.184740227909675

>  <path>  (926) 
/opt/xchem-fragalysis-2/maxwin/BulkDock/SCRATCH/511024/C52466-P76/C52466-P76.minimised.mol

>  <scratch_subdir>  (926) 
/opt/xchem-fragalysis-2/maxwin/BulkDock/SCRATCH/511024/C52466-P76

>  <fragmenstein_runtime>  (926) 
7.1087517738342285

>  <fragmenstein_outcome>  (926) 
too moved

>  <fragmenstein_mode>  (926) 
expansion

>  <fragmenstein_error>  (926) 


$$$$
C52467-P40
     RDKit          3D

 49 53  0  0  0  0  0  0  0  0999 V2000
    8.5424   -1.8753   16.2620 O   0  0  0  0  0  0  0  0  0  0  0  0
    9.1626   -1.5083   17.2822 C   0  0  0  0  0  0  0  0  0  0  0  0
   10.3129   -0.5922   16.8180 C   0  0  0  0  0  0  0  0  0  0  0  0
    9.8970    0.6753   16.3248 C   0  0  0  0  0  0  0  0  0  0  0  0
   10.6240    1.3287   15.3261 C   0  0  0  0  0  0  0  0  0  0  0  0
   11.7272    0.7244   14.7109 C   0  0  0  0  0  0  0  0  0  0  0  0
   12.0529   -0.5872   15.0805 C   0  0  0  0  0  0  0  0  0  0  0  0
   13.0097   -1.4325   14.5653 N   0  0  0  0  0  0  0  0  0  0  0  0
   12.9384   -2.6549   15.1685 C   0  0  0  0  0  0  0  0  0  0  0  0
   11.9266   -2.6017   16.0982 C   0  0  0  0  0  0  0  0  0  0  0  0
   11.3612   -1.2869   16.0751 C   0  0  0  0  0  0  0  0  0  0  0  0
    8.5817   -2.3499   19.1731 N   0  0  0  0  0  0  0  0  0  0  0  0
    7.0986   -4.0245   19.5382 C   0  0  0  0  0  0  0  0  0  0  0  0
    5.6079   -3.4425   19.7636 C   0  0  0  0  0  0  0  0  0  0  0  0
    5.8034   -2.6385   20.9973 C   0  0  0  0  0  0  0  0  0  0  0  0
    6.6974   -3.1747   22.0860 N   0  0  0  0  0  0  0  0  0  0  0  0
    5.9922   -3.1126   23.6385 C   0  0  0  0  0  0  0  0  0  0  0  0
    5.3076   -2.1894   24.0915 O   0  0  0  0  0  0  0  0  0  0  0  0
    6.1082   -4.4347   24.1490 N   0  0  0  0  0  0  0  0  0  0  0  0
    5.4025   -4.8511   25.3610 C   0  0  0  0  0  0  0  0  0  0  0  0
    5.0083   -3.9013   26.3276 C   0  0  0  0  0  0  0  0  0  0  0  0
    4.2109   -4.2317   27.4359 C   0  0  0  0  0  0  0  0  0  0  0  0
    3.7866   -5.5386   27.6209 C   0  0  0  0  0  0  0  0  0  0  0  0
    4.1821   -6.5060   26.7040 C   0  0  0  0  0  0  0  0  0  0  0  0
    4.9915   -6.1715   25.6005 C   0  0  0  0  0  0  0  0  0  0  0  0
    6.7441   -5.1984   23.1868 C   0  0  0  0  0  0  0  0  0  0  0  0
    6.6988   -6.4269   23.3312 O   0  0  0  0  0  0  0  0  0  0  0  0
    7.5138   -4.3070   21.5930 C   0  0  0  0  0  0  0  0  0  0  0  0
    9.0500   -3.9070   20.2043 C   0  0  0  0  0  0  0  0  0  0  0  0
    8.9671    1.1188   16.6820 H   0  0  0  0  0  0  0  0  0  0  0  0
   10.2901    2.3062   14.9837 H   0  0  0  0  0  0  0  0  0  0  0  0
   12.2582    1.2341   13.9136 H   0  0  0  0  0  0  0  0  0  0  0  0
   13.6393   -1.1893   13.8142 H   0  0  0  0  0  0  0  0  0  0  0  0
   13.6002   -3.4623   14.8843 H   0  0  0  0  0  0  0  0  0  0  0  0
   11.6447   -3.4342   16.7287 H   0  0  0  0  0  0  0  0  0  0  0  0
    7.1170   -5.0957   19.6422 H   0  0  0  0  0  0  0  0  0  0  0  0
    6.8799   -4.4484   18.5400 H   0  0  0  0  0  0  0  0  0  0  0  0
    4.9353   -4.2661   19.5452 H   0  0  0  0  0  0  0  0  0  0  0  0
    5.3836   -2.6451   19.0767 H   0  0  0  0  0  0  0  0  0  0  0  0
    6.1396   -1.6659   20.6828 H   0  0  0  0  0  0  0  0  0  0  0  0
    5.0938   -2.6452   21.7304 H   0  0  0  0  0  0  0  0  0  0  0  0
    5.3311   -2.8650   26.2462 H   0  0  0  0  0  0  0  0  0  0  0  0
    3.9365   -3.4542   28.1446 H   0  0  0  0  0  0  0  0  0  0  0  0
    3.1719   -5.7987   28.4752 H   0  0  0  0  0  0  0  0  0  0  0  0
    3.8659   -7.5366   26.8187 H   0  0  0  0  0  0  0  0  0  0  0  0
    5.2327   -6.9709   24.9021 H   0  0  0  0  0  0  0  0  0  0  0  0
    7.0620   -5.2509   21.2809 H   0  0  0  0  0  0  0  0  0  0  0  0
    9.5761   -4.9140   20.0384 H   0  0  0  0  0  0  0  0  0  0  0  0
    9.6465   -2.9642   20.6732 H   0  0  0  0  0  0  0  0  0  0  0  0
  1  2  2  0
  2  3  1  0
  3  4  2  0
  4  5  1  0
  5  6  2  0
  6  7  1  0
  7  8  1  0
  8  9  1  0
  9 10  2  0
 10 11  1  0
  2 12  1  0
 12 13  1  0
 13 14  1  0
 14 15  1  0
 15 16  1  0
 16 17  1  0
 17 18  2  0
 17 19  1  0
 19 20  1  0
 20 21  2  0
 21 22  1  0
 22 23  2  0
 23 24  1  0
 24 25  2  0
 19 26  1  0
 26 27  2  0
 26 28  1  0
 28 29  1  0
 11  3  1  0
 29 12  1  0
 11  7  2  0
 28 16  1  0
 25 20  1  0
  4 30  1  0
  5 31  1  0
  6 32  1  0
  8 33  1  0
  9 34  1  0
 10 35  1  0
 13 36  1  0
 13 37  1  0
 14 38  1  0
 14 39  1  0
 15 40  1  0
 15 41  1  0
 21 42  1  0
 22 43  1  0
 23 44  1  0
 24 45  1  0
 25 46  1  0
 28 47  1  0
 29 48  1  0
 29 49  1  0
M  END
>  <Energy>  (927) 
1092.4583740414655

>  <compound_id>  (927) 
52467

>  <target_id>  (927) 
1

>  <reference_id>  (927) 
40

>  <inspiration_ids>  (927) 
[40, 76]

>  <energy_score>  (927) 
997.3916656437366

>  <distance_score>  (927) 
5.285727761421452

>  <path>  (927) 
/opt/xchem-fragalysis-2/maxwin/BulkDock/SCRATCH/511024/C52467-P40/C52467-P40.minimised.mol

>  <scratch_subdir>  (927) 
/opt/xchem-fragalysis-2/maxwin/BulkDock/SCRATCH/511024/C52467-P40

>  <fragmenstein_runtime>  (927) 
13.964210987091064

>  <fragmenstein_outcome>  (927) 
too moved

>  <fragmenstein_mode>  (927) 
expansion

>  <fragmenstein_error>  (927) 


$$$$
C52467-P76
     RDKit          3D

 49 53  0  0  0  0  0  0  0  0999 V2000
    8.2100   -1.5366   16.4764 O   0  0  0  0  0  0  0  0  0  0  0  0
    9.0379   -2.1777   17.3943 C   0  0  0  0  0  0  0  0  0  0  0  0
   10.9551   -1.9270   16.7775 C   0  0  0  0  0  0  0  0  0  0  0  0
   10.8252   -1.7452   15.3357 C   0  0  0  0  0  0  0  0  0  0  0  0
   11.8605   -1.6070   14.4070 C   0  0  0  0  0  0  0  0  0  0  0  0
   13.1515   -1.8638   14.7686 C   0  0  0  0  0  0  0  0  0  0  0  0
   13.2920   -2.5348   15.9722 C   0  0  0  0  0  0  0  0  0  0  0  0
   14.4554   -3.1202   16.4173 N   0  0  0  0  0  0  0  0  0  0  0  0
   14.2059   -3.8622   17.5156 C   0  0  0  0  0  0  0  0  0  0  0  0
   12.8736   -3.6923   17.8100 C   0  0  0  0  0  0  0  0  0  0  0  0
   12.2406   -2.7417   16.9096 C   0  0  0  0  0  0  0  0  0  0  0  0
    8.5436   -3.6181   19.1269 N   0  0  0  0  0  0  0  0  0  0  0  0
    6.7414   -4.4216   19.5839 C   0  0  0  0  0  0  0  0  0  0  0  0
    5.5344   -3.1339   20.2278 C   0  0  0  0  0  0  0  0  0  0  0  0
    5.6210   -1.8783   21.4193 C   0  0  0  0  0  0  0  0  0  0  0  0
    5.7013   -2.1976   22.7586 N   0  0  0  0  0  0  0  0  0  0  0  0
    5.0274   -1.4666   24.0925 C   0  0  0  0  0  0  0  0  0  0  0  0
    4.0823   -0.7714   24.3861 O   0  0  0  0  0  0  0  0  0  0  0  0
    5.8922   -1.7500   25.0879 N   0  0  0  0  0  0  0  0  0  0  0  0
    5.3589   -1.4356   26.4730 C   0  0  0  0  0  0  0  0  0  0  0  0
    6.2865   -1.0142   27.4298 C   0  0  0  0  0  0  0  0  0  0  0  0
    5.9088   -0.8524   28.7733 C   0  0  0  0  0  0  0  0  0  0  0  0
    4.5998   -1.1067   29.1895 C   0  0  0  0  0  0  0  0  0  0  0  0
    3.6538   -1.5156   28.2607 C   0  0  0  0  0  0  0  0  0  0  0  0
    4.0294   -1.6746   26.9226 C   0  0  0  0  0  0  0  0  0  0  0  0
    5.7153   -2.7948   24.3533 C   0  0  0  0  0  0  0  0  0  0  0  0
    4.4665   -3.3171   24.6864 O   0  0  0  0  0  0  0  0  0  0  0  0
    6.7475   -3.4518   22.7891 C   0  0  0  0  0  0  0  0  0  0  0  0
    8.0907   -3.3308   21.1352 C   0  0  0  0  0  0  0  0  0  0  0  0
    9.8306   -1.5627   14.9246 H   0  0  0  0  0  0  0  0  0  0  0  0
   11.6331   -1.2537   13.4076 H   0  0  0  0  0  0  0  0  0  0  0  0
   13.9707   -1.7255   14.0720 H   0  0  0  0  0  0  0  0  0  0  0  0
   15.3381   -3.0741   15.9253 H   0  0  0  0  0  0  0  0  0  0  0  0
   14.9833   -4.4316   18.0060 H   0  0  0  0  0  0  0  0  0  0  0  0
   12.4898   -4.1636   18.6948 H   0  0  0  0  0  0  0  0  0  0  0  0
    6.9906   -5.3014   20.1169 H   0  0  0  0  0  0  0  0  0  0  0  0
    6.3266   -4.9295   18.6993 H   0  0  0  0  0  0  0  0  0  0  0  0
    5.3216   -2.6980   19.2802 H   0  0  0  0  0  0  0  0  0  0  0  0
    4.6778   -3.6921   20.4442 H   0  0  0  0  0  0  0  0  0  0  0  0
    6.4003   -1.1817   21.0289 H   0  0  0  0  0  0  0  0  0  0  0  0
    4.9237   -1.0956   21.6424 H   0  0  0  0  0  0  0  0  0  0  0  0
    7.3181   -0.8416   27.1392 H   0  0  0  0  0  0  0  0  0  0  0  0
    6.6505   -0.5308   29.4998 H   0  0  0  0  0  0  0  0  0  0  0  0
    4.3220   -0.9775   30.2312 H   0  0  0  0  0  0  0  0  0  0  0  0
    2.6281   -1.7133   28.5560 H   0  0  0  0  0  0  0  0  0  0  0  0
    3.2678   -2.0168   26.2220 H   0  0  0  0  0  0  0  0  0  0  0  0
    7.2934   -4.0083   23.5497 H   0  0  0  0  0  0  0  0  0  0  0  0
    7.8899   -4.3139   21.6512 H   0  0  0  0  0  0  0  0  0  0  0  0
    8.2172   -4.3508   20.7579 H   0  0  0  0  0  0  0  0  0  0  0  0
  1  2  2  0
  2  3  1  0
  3  4  2  0
  4  5  1  0
  5  6  2  0
  6  7  1  0
  7  8  1  0
  8  9  1  0
  9 10  2  0
 10 11  1  0
  2 12  1  0
 12 13  1  0
 13 14  1  0
 14 15  1  0
 15 16  1  0
 16 17  1  0
 17 18  2  0
 17 19  1  0
 19 20  1  0
 20 21  2  0
 21 22  1  0
 22 23  2  0
 23 24  1  0
 24 25  2  0
 19 26  1  0
 26 27  2  0
 26 28  1  0
 28 29  1  0
 11  3  1  0
 29 12  1  0
 11  7  2  0
 28 16  1  0
 25 20  1  0
  4 30  1  0
  5 31  1  0
  6 32  1  0
  8 33  1  0
  9 34  1  0
 10 35  1  0
 13 36  1  0
 13 37  1  0
 14 38  1  0
 14 39  1  0
 15 40  1  0
 15 41  1  0
 21 42  1  0
 22 43  1  0
 23 44  1  0
 24 45  1  0
 25 46  1  0
 28 47  1  0
 29 48  1  0
 29 49  1  0
M  END
>  <Energy>  (928) 
1570.8942619941643

>  <compound_id>  (928) 
52467

>  <target_id>  (928) 
1

>  <reference_id>  (928) 
76

>  <inspiration_ids>  (928) 
[40, 76]

>  <energy_score>  (928) 
1475.8275535964235

>  <distance_score>  (928) 
5.373895905526511

>  <path>  (928) 
/opt/xchem-fragalysis-2/maxwin/BulkDock/SCRATCH/511024/C52467-P76/C52467-P76.minimised.mol

>  <scratch_subdir>  (928) 
/opt/xchem-fragalysis-2/maxwin/BulkDock/SCRATCH/511024/C52467-P76

>  <fragmenstein_runtime>  (928) 
15.707596778869629

>  <fragmenstein_outcome>  (928) 
too moved

>  <fragmenstein_mode>  (928) 
expansion

>  <fragmenstein_error>  (928) 


$$$$
C52468-P40
     RDKit          3D

 58 62  0  0  0  0  0  0  0  0999 V2000
    9.0755    0.2498   17.7231 O   0  0  0  0  0  0  0  0  0  0  0  0
    8.4002    1.1821   18.0658 C   0  0  0  0  0  0  0  0  0  0  0  0
    7.7536    1.0777   19.5055 C   0  0  0  0  0  0  0  0  0  0  0  0
    6.9977   -0.4923   19.9357 C   0  0  0  0  0  0  0  0  0  0  0  0
    5.7528   -1.8462   20.9204 C   0  0  0  0  0  0  0  0  0  0  0  0
    5.0490   -1.7409   22.8636 C   0  0  0  0  0  0  0  0  0  0  0  0
    4.8647   -0.5551   23.6133 C   0  0  0  0  0  0  0  0  0  0  0  0
    4.4714   -0.5671   24.9203 N   0  0  0  0  0  0  0  0  0  0  0  0
    4.6461   -1.7790   25.4716 C   0  0  0  0  0  0  0  0  0  0  0  0
    4.3908   -2.1758   26.8016 C   0  0  0  0  0  0  0  0  0  0  0  0
    4.6855   -3.4760   27.1837 C   0  0  0  0  0  0  0  0  0  0  0  0
    5.2612   -4.3278   26.2654 C   0  0  0  0  0  0  0  0  0  0  0  0
    5.5133   -3.8889   24.9479 C   0  0  0  0  0  0  0  0  0  0  0  0
    5.1722   -2.5631   24.4372 C   0  0  0  0  0  0  0  0  0  0  0  0
    8.0332    2.3649   17.3624 N   0  0  0  0  0  0  0  0  0  0  0  0
    9.0607    3.4785   17.6270 C   0  0  0  0  0  0  0  0  0  0  0  0
    9.7348    4.6343   16.7868 C   0  0  0  0  0  0  0  0  0  0  0  0
   10.8105    4.2330   15.7638 C   0  0  0  0  0  0  0  0  0  0  0  0
   10.7255    2.8402   15.4219 N   0  0  0  0  0  0  0  0  0  0  0  0
   11.7379    1.9981   14.9745 C   0  0  0  0  0  0  0  0  0  0  0  0
   12.8656    2.4068   14.7331 O   0  0  0  0  0  0  0  0  0  0  0  0
   11.2144    0.7107   14.9082 N   0  0  0  0  0  0  0  0  0  0  0  0
   11.9797   -0.5021   14.8697 C   0  0  0  0  0  0  0  0  0  0  0  0
   11.3622   -1.7638   14.8832 C   0  0  0  0  0  0  0  0  0  0  0  0
   12.0979   -2.9518   14.9785 C   0  0  0  0  0  0  0  0  0  0  0  0
   13.4826   -2.9097   15.0441 C   0  0  0  0  0  0  0  0  0  0  0  0
   14.1271   -1.6799   14.9996 C   0  0  0  0  0  0  0  0  0  0  0  0
   13.3841   -0.4935   14.9154 C   0  0  0  0  0  0  0  0  0  0  0  0
    9.8286    0.7880   15.0412 C   0  0  0  0  0  0  0  0  0  0  0  0
    8.9833   -0.0973   15.0266 O   0  0  0  0  0  0  0  0  0  0  0  0
    9.4670    2.2665   15.1184 C   0  0  0  0  0  0  0  0  0  0  0  0
    8.2705    2.7636   15.9617 C   0  0  0  0  0  0  0  0  0  0  0  0
    8.6878    1.1413   20.0741 H   0  0  0  0  0  0  0  0  0  0  0  0
    7.3024    2.0274   19.7237 H   0  0  0  0  0  0  0  0  0  0  0  0
    7.9428   -0.8638   19.7108 H   0  0  0  0  0  0  0  0  0  0  0  0
    6.7282   -0.5505   18.8619 H   0  0  0  0  0  0  0  0  0  0  0  0
    6.4610   -2.7006   21.1291 H   0  0  0  0  0  0  0  0  0  0  0  0
    5.2501   -2.5878   20.2815 H   0  0  0  0  0  0  0  0  0  0  0  0
    4.9316    0.4392   23.2358 H   0  0  0  0  0  0  0  0  0  0  0  0
    4.1861    0.2595   25.4226 H   0  0  0  0  0  0  0  0  0  0  0  0
    3.9740   -1.4735   27.5174 H   0  0  0  0  0  0  0  0  0  0  0  0
    4.5046   -3.8025   28.2021 H   0  0  0  0  0  0  0  0  0  0  0  0
    5.5431   -5.3387   26.5455 H   0  0  0  0  0  0  0  0  0  0  0  0
    5.9809   -4.6201   24.2888 H   0  0  0  0  0  0  0  0  0  0  0  0
    8.4723    4.0683   18.3529 H   0  0  0  0  0  0  0  0  0  0  0  0
    9.7977    3.0373   18.2889 H   0  0  0  0  0  0  0  0  0  0  0  0
    8.9798    5.2704   16.3073 H   0  0  0  0  0  0  0  0  0  0  0  0
   10.2171    5.3134   17.5044 H   0  0  0  0  0  0  0  0  0  0  0  0
   10.6918    4.8168   14.8436 H   0  0  0  0  0  0  0  0  0  0  0  0
   11.8157    4.4487   16.1403 H   0  0  0  0  0  0  0  0  0  0  0  0
   10.2831   -1.8699   14.8263 H   0  0  0  0  0  0  0  0  0  0  0  0
   11.5796   -3.9074   15.0134 H   0  0  0  0  0  0  0  0  0  0  0  0
   14.0519   -3.8316   15.1296 H   0  0  0  0  0  0  0  0  0  0  0  0
   15.2120   -1.6342   15.0485 H   0  0  0  0  0  0  0  0  0  0  0  0
   13.9488    0.4337   14.9143 H   0  0  0  0  0  0  0  0  0  0  0  0
    9.2832    2.5569   14.0790 H   0  0  0  0  0  0  0  0  0  0  0  0
    7.8691    3.7540   15.6983 H   0  0  0  0  0  0  0  0  0  0  0  0
    7.4698    2.1599   15.5134 H   0  0  0  0  0  0  0  0  0  0  0  0
  1  2  2  0
  2  3  1  0
  3  4  1  0
  4  5  1  0
  5  6  1  0
  6  7  2  0
  7  8  1  0
  8  9  1  0
  9 10  2  0
 10 11  1  0
 11 12  2  0
 12 13  1  0
 13 14  2  0
  2 15  1  0
 15 16  1  0
 16 17  1  0
 17 18  1  0
 18 19  1  0
 19 20  1  0
 20 21  2  0
 20 22  1  0
 22 23  1  0
 23 24  2  0
 24 25  1  0
 25 26  2  0
 26 27  1  0
 27 28  2  0
 22 29  1  0
 29 30  2  0
 29 31  1  0
 31 32  1  0
 14  6  1  0
 32 15  1  0
 14  9  1  0
 31 19  1  0
 28 23  1  0
  3 33  1  0
  3 34  1  0
  4 35  1  0
  4 36  1  0
  5 37  1  0
  5 38  1  0
  7 39  1  0
  8 40  1  0
 10 41  1  0
 11 42  1  0
 12 43  1  0
 13 44  1  0
 16 45  1  0
 16 46  1  0
 17 47  1  0
 17 48  1  0
 18 49  1  0
 18 50  1  0
 24 51  1  0
 25 52  1  0
 26 53  1  0
 27 54  1  0
 28 55  1  0
 31 56  1  0
 32 57  1  0
 32 58  1  0
M  END
>  <Energy>  (929) 
453.48627851789394

>  <compound_id>  (929) 
52468

>  <target_id>  (929) 
1

>  <reference_id>  (929) 
40

>  <inspiration_ids>  (929) 
[40, 76]

>  <energy_score>  (929) 
382.4980477262251

>  <distance_score>  (929) 
5.797894278543819

>  <path>  (929) 
/opt/xchem-fragalysis-2/maxwin/BulkDock/SCRATCH/511024/C52468-P40/C52468-P40.minimised.mol

>  <scratch_subdir>  (929) 
/opt/xchem-fragalysis-2/maxwin/BulkDock/SCRATCH/511024/C52468-P40

>  <fragmenstein_runtime>  (929) 
20.35846519470215

>  <fragmenstein_outcome>  (929) 
too moved

>  <fragmenstein_mode>  (929) 
expansion

>  <fragmenstein_error>  (929) 


$$$$
C52468-P76
     RDKit          3D

 58 62  0  0  0  0  0  0  0  0999 V2000
    7.5256   -1.8991   15.9944 O   0  0  0  0  0  0  0  0  0  0  0  0
    7.0421   -0.8979   16.3257 C   0  0  0  0  0  0  0  0  0  0  0  0
    5.9436   -1.2154   18.0754 C   0  0  0  0  0  0  0  0  0  0  0  0
    5.6295   -2.5574   19.7639 C   0  0  0  0  0  0  0  0  0  0  0  0
    5.4474   -2.2989   21.7511 C   0  0  0  0  0  0  0  0  0  0  0  0
    4.5076   -1.7869   23.3907 C   0  0  0  0  0  0  0  0  0  0  0  0
    5.1917   -1.5903   24.5798 C   0  0  0  0  0  0  0  0  0  0  0  0
    4.5441   -0.3227   25.0304 N   0  0  0  0  0  0  0  0  0  0  0  0
    3.5233   -0.8507   25.6660 C   0  0  0  0  0  0  0  0  0  0  0  0
    2.9787   -0.5266   26.9226 C   0  0  0  0  0  0  0  0  0  0  0  0
    2.2914   -1.5246   27.5543 C   0  0  0  0  0  0  0  0  0  0  0  0
    2.2624   -2.7222   26.8996 C   0  0  0  0  0  0  0  0  0  0  0  0
    2.8659   -2.8804   25.5753 C   0  0  0  0  0  0  0  0  0  0  0  0
    3.4368   -1.9234   24.7401 C   0  0  0  0  0  0  0  0  0  0  0  0
    7.6151    0.4312   15.2776 N   0  0  0  0  0  0  0  0  0  0  0  0
    9.0359    1.5769   15.4384 C   0  0  0  0  0  0  0  0  0  0  0  0
   10.1615    2.3890   14.2054 C   0  0  0  0  0  0  0  0  0  0  0  0
   11.5164    1.5597   13.4846 C   0  0  0  0  0  0  0  0  0  0  0  0
   11.5412    0.0667   13.8021 N   0  0  0  0  0  0  0  0  0  0  0  0
   12.3710   -0.8030   14.7192 C   0  0  0  0  0  0  0  0  0  0  0  0
   13.5021   -0.5225   15.0963 O   0  0  0  0  0  0  0  0  0  0  0  0
   11.5850   -1.9191   15.1579 N   0  0  0  0  0  0  0  0  0  0  0  0
   11.1356   -2.4253   16.5534 C   0  0  0  0  0  0  0  0  0  0  0  0
    9.3880   -1.9053   16.8965 C   0  0  0  0  0  0  0  0  0  0  0  0
    8.7988   -1.7510   18.9050 C   0  0  0  0  0  0  0  0  0  0  0  0
   10.1480   -2.9234   20.0449 C   0  0  0  0  0  0  0  0  0  0  0  0
   12.0114   -3.3988   19.4974 C   0  0  0  0  0  0  0  0  0  0  0  0
   12.2600   -3.1503   17.7260 C   0  0  0  0  0  0  0  0  0  0  0  0
   10.4588   -1.8242   14.4595 C   0  0  0  0  0  0  0  0  0  0  0  0
    9.6846   -2.7763   14.5344 O   0  0  0  0  0  0  0  0  0  0  0  0
   10.2152   -0.3857   13.8614 C   0  0  0  0  0  0  0  0  0  0  0  0
    8.6141    0.4205   13.8693 C   0  0  0  0  0  0  0  0  0  0  0  0
    4.9173   -1.2377   17.7093 H   0  0  0  0  0  0  0  0  0  0  0  0
    6.4498   -0.3891   18.6105 H   0  0  0  0  0  0  0  0  0  0  0  0
    5.5955   -3.6469   19.6352 H   0  0  0  0  0  0  0  0  0  0  0  0
    6.4561   -1.9323   20.3390 H   0  0  0  0  0  0  0  0  0  0  0  0
    6.1395   -2.9455   22.2760 H   0  0  0  0  0  0  0  0  0  0  0  0
    4.8418   -3.1023   21.4398 H   0  0  0  0  0  0  0  0  0  0  0  0
    6.1449   -1.8163   25.0387 H   0  0  0  0  0  0  0  0  0  0  0  0
    4.2620    0.3424   24.3186 H   0  0  0  0  0  0  0  0  0  0  0  0
    3.2084    0.4108   27.4134 H   0  0  0  0  0  0  0  0  0  0  0  0
    1.8475   -1.3902   28.5311 H   0  0  0  0  0  0  0  0  0  0  0  0
    1.7202   -3.5484   27.3462 H   0  0  0  0  0  0  0  0  0  0  0  0
    2.6869   -3.7535   25.0400 H   0  0  0  0  0  0  0  0  0  0  0  0
    8.3304    2.4354   15.3813 H   0  0  0  0  0  0  0  0  0  0  0  0
    9.1823    1.9469   16.4815 H   0  0  0  0  0  0  0  0  0  0  0  0
    9.6403    2.9317   13.4118 H   0  0  0  0  0  0  0  0  0  0  0  0
   10.6140    3.2083   14.7903 H   0  0  0  0  0  0  0  0  0  0  0  0
   12.4587    2.0263   13.7955 H   0  0  0  0  0  0  0  0  0  0  0  0
   11.4065    1.6641   12.3991 H   0  0  0  0  0  0  0  0  0  0  0  0
    9.1257   -1.4196   15.9927 H   0  0  0  0  0  0  0  0  0  0  0  0
    8.3616   -0.7772   19.2704 H   0  0  0  0  0  0  0  0  0  0  0  0
   10.7332   -3.3560   21.0330 H   0  0  0  0  0  0  0  0  0  0  0  0
   12.7063   -3.9048   20.1616 H   0  0  0  0  0  0  0  0  0  0  0  0
   13.2548   -3.3975   17.3447 H   0  0  0  0  0  0  0  0  0  0  0  0
   10.2945   -0.2692   12.7733 H   0  0  0  0  0  0  0  0  0  0  0  0
    8.0139   -0.3522   13.3679 H   0  0  0  0  0  0  0  0  0  0  0  0
    8.7876    1.1476   13.1021 H   0  0  0  0  0  0  0  0  0  0  0  0
  1  2  2  0
  2  3  1  0
  3  4  1  0
  4  5  1  0
  5  6  1  0
  6  7  2  0
  7  8  1  0
  8  9  1  0
  9 10  2  0
 10 11  1  0
 11 12  2  0
 12 13  1  0
 13 14  2  0
  2 15  1  0
 15 16  1  0
 16 17  1  0
 17 18  1  0
 18 19  1  0
 19 20  1  0
 20 21  2  0
 20 22  1  0
 22 23  1  0
 23 24  2  0
 24 25  1  0
 25 26  2  0
 26 27  1  0
 27 28  2  0
 22 29  1  0
 29 30  2  0
 29 31  1  0
 31 32  1  0
 14  6  1  0
 32 15  1  0
 14  9  1  0
 31 19  1  0
 28 23  1  0
  3 33  1  0
  3 34  1  0
  4 35  1  0
  4 36  1  0
  5 37  1  0
  5 38  1  0
  7 39  1  0
  8 40  1  0
 10 41  1  0
 11 42  1  0
 12 43  1  0
 13 44  1  0
 16 45  1  0
 16 46  1  0
 17 47  1  0
 17 48  1  0
 18 49  1  0
 18 50  1  0
 24 51  1  0
 25 52  1  0
 26 53  1  0
 27 54  1  0
 28 55  1  0
 31 56  1  0
 32 57  1  0
 32 58  1  0
M  END
>  <Energy>  (930) 
1848.4588645675576

>  <compound_id>  (930) 
52468

>  <target_id>  (930) 
1

>  <reference_id>  (930) 
76

>  <inspiration_ids>  (930) 
[40, 76]

>  <energy_score>  (930) 
1777.4706337758769

>  <distance_score>  (930) 
5.4849584882377185

>  <path>  (930) 
/opt/xchem-fragalysis-2/maxwin/BulkDock/SCRATCH/511024/C52468-P76/C52468-P76.minimised.mol

>  <scratch_subdir>  (930) 
/opt/xchem-fragalysis-2/maxwin/BulkDock/SCRATCH/511024/C52468-P76

>  <fragmenstein_runtime>  (930) 
16.679564714431763

>  <fragmenstein_outcome>  (930) 
too moved

>  <fragmenstein_mode>  (930) 
expansion

>  <fragmenstein_error>  (930) 


$$$$
C52469-P40
     RDKit          3D

 50 54  0  0  0  0  0  0  0  0999 V2000
    6.2685   -5.6162   24.2869 O   0  0  0  0  0  0  0  0  0  0  0  0
    5.9272   -4.4306   24.3454 C   0  0  0  0  0  0  0  0  0  0  0  0
    6.1810   -3.1837   22.9749 C   0  0  0  0  0  0  0  0  0  0  0  0
    6.7995   -2.7152   21.1446 C   0  0  0  0  0  0  0  0  0  0  0  0
    7.5435   -1.0300   20.2917 N   0  0  0  0  0  0  0  0  0  0  0  0
    8.2143   -0.0740   18.8141 C   0  0  0  0  0  0  0  0  0  0  0  0
    8.6672   -0.0582   17.0314 C   0  0  0  0  0  0  0  0  0  0  0  0
    7.7534    0.3021   16.0546 C   0  0  0  0  0  0  0  0  0  0  0  0
    8.1114    0.9226   14.8256 C   0  0  0  0  0  0  0  0  0  0  0  0
    9.4645    1.0592   14.4829 C   0  0  0  0  0  0  0  0  0  0  0  0
   10.2310    1.6923   13.4660 C   0  0  0  0  0  0  0  0  0  0  0  0
   11.5381    1.2743   13.5981 C   0  0  0  0  0  0  0  0  0  0  0  0
   11.5755    0.3716   14.6280 N   0  0  0  0  0  0  0  0  0  0  0  0
   10.3460    0.3206   15.2458 C   0  0  0  0  0  0  0  0  0  0  0  0
    9.9247   -0.3410   16.4162 C   0  0  0  0  0  0  0  0  0  0  0  0
    6.5592   -0.0658   20.2600 C   0  0  0  0  0  0  0  0  0  0  0  0
    5.1126   -0.6223   21.5989 C   0  0  0  0  0  0  0  0  0  0  0  0
    4.8411   -1.1115   23.2609 C   0  0  0  0  0  0  0  0  0  0  0  0
    5.5130   -2.2259   23.8658 N   0  0  0  0  0  0  0  0  0  0  0  0
    5.1527   -2.5228   25.1816 C   0  0  0  0  0  0  0  0  0  0  0  0
    4.6515   -1.6725   25.9115 O   0  0  0  0  0  0  0  0  0  0  0  0
    5.2700   -3.8543   25.4216 N   0  0  0  0  0  0  0  0  0  0  0  0
    4.5455   -4.5338   26.4654 C   0  0  0  0  0  0  0  0  0  0  0  0
    4.2265   -5.8953   26.3765 C   0  0  0  0  0  0  0  0  0  0  0  0
    3.3693   -6.5105   27.3029 C   0  0  0  0  0  0  0  0  0  0  0  0
    2.8192   -5.7890   28.3562 C   0  0  0  0  0  0  0  0  0  0  0  0
    3.1536   -4.4521   28.4985 C   0  0  0  0  0  0  0  0  0  0  0  0
    4.0083   -3.8414   27.5697 C   0  0  0  0  0  0  0  0  0  0  0  0
    6.7684   -4.1116   22.8465 H   0  0  0  0  0  0  0  0  0  0  0  0
    7.5519   -3.5247   21.0371 H   0  0  0  0  0  0  0  0  0  0  0  0
    5.8685   -2.9005   20.5302 H   0  0  0  0  0  0  0  0  0  0  0  0
    9.0369    0.3224   19.3620 H   0  0  0  0  0  0  0  0  0  0  0  0
    7.7823    0.9426   18.7292 H   0  0  0  0  0  0  0  0  0  0  0  0
    6.7128    0.0526   16.1869 H   0  0  0  0  0  0  0  0  0  0  0  0
    7.3308    1.2881   14.1660 H   0  0  0  0  0  0  0  0  0  0  0  0
    9.8653    2.3644   12.7049 H   0  0  0  0  0  0  0  0  0  0  0  0
   12.4257    1.5036   13.0256 H   0  0  0  0  0  0  0  0  0  0  0  0
   12.3996   -0.1216   14.9411 H   0  0  0  0  0  0  0  0  0  0  0  0
   10.6455   -1.0659   16.7726 H   0  0  0  0  0  0  0  0  0  0  0  0
    6.9684    0.9758   20.3158 H   0  0  0  0  0  0  0  0  0  0  0  0
    6.3111    0.3102   19.2275 H   0  0  0  0  0  0  0  0  0  0  0  0
    4.4984    0.2774   21.4549 H   0  0  0  0  0  0  0  0  0  0  0  0
    5.2714   -1.5336   21.1468 H   0  0  0  0  0  0  0  0  0  0  0  0
    3.8482   -1.5604   23.3278 H   0  0  0  0  0  0  0  0  0  0  0  0
    4.9013   -0.2425   23.9358 H   0  0  0  0  0  0  0  0  0  0  0  0
    4.5967   -6.5093   25.5567 H   0  0  0  0  0  0  0  0  0  0  0  0
    3.1369   -7.5603   27.1626 H   0  0  0  0  0  0  0  0  0  0  0  0
    2.1453   -6.2569   29.0642 H   0  0  0  0  0  0  0  0  0  0  0  0
    2.7553   -3.8654   29.3231 H   0  0  0  0  0  0  0  0  0  0  0  0
    4.2415   -2.7942   27.7471 H   0  0  0  0  0  0  0  0  0  0  0  0
  1  2  2  0
  2  3  1  0
  3  4  1  0
  4  5  1  0
  5  6  1  0
  6  7  1  0
  7  8  2  0
  8  9  1  0
  9 10  2  0
 10 11  1  0
 11 12  2  0
 12 13  1  0
 13 14  1  0
 14 15  2  0
  5 16  1  0
 16 17  1  0
 17 18  1  0
 18 19  1  0
 19 20  1  0
 20 21  2  0
 20 22  1  0
 22 23  1  0
 23 24  2  0
 24 25  1  0
 25 26  2  0
 26 27  1  0
 27 28  2  0
 22  2  1  0
 28 23  1  0
 19  3  1  0
 15  7  1  0
 14 10  1  0
  3 29  1  0
  4 30  1  0
  4 31  1  0
  6 32  1  0
  6 33  1  0
  8 34  1  0
  9 35  1  0
 11 36  1  0
 12 37  1  0
 13 38  1  0
 15 39  1  0
 16 40  1  0
 16 41  1  0
 17 42  1  0
 17 43  1  0
 18 44  1  0
 18 45  1  0
 24 46  1  0
 25 47  1  0
 26 48  1  0
 27 49  1  0
 28 50  1  0
M  END
>  <Energy>  (931) 
698.18594793062948

>  <compound_id>  (931) 
52469

>  <target_id>  (931) 
1

>  <reference_id>  (931) 
40

>  <inspiration_ids>  (931) 
[40, 76]

>  <energy_score>  (931) 
608.5508758324272

>  <distance_score>  (931) 
5.137571320794468

>  <path>  (931) 
/opt/xchem-fragalysis-2/maxwin/BulkDock/SCRATCH/511024/C52469-P40/C52469-P40.minimised.mol

>  <scratch_subdir>  (931) 
/opt/xchem-fragalysis-2/maxwin/BulkDock/SCRATCH/511024/C52469-P40

>  <fragmenstein_runtime>  (931) 
15.87845516204834

>  <fragmenstein_outcome>  (931) 
too moved

>  <fragmenstein_mode>  (931) 
expansion

>  <fragmenstein_error>  (931) 


$$$$
C52469-P76
     RDKit          3D

 50 54  0  0  0  0  0  0  0  0999 V2000
    7.2875   -1.1242   26.0745 O   0  0  0  0  0  0  0  0  0  0  0  0
    6.1155   -1.4710   25.9311 C   0  0  0  0  0  0  0  0  0  0  0  0
    5.3615   -1.9694   24.4042 C   0  0  0  0  0  0  0  0  0  0  0  0
    5.5050   -1.8809   22.4677 C   0  0  0  0  0  0  0  0  0  0  0  0
    5.8816   -0.5636   21.3189 N   0  0  0  0  0  0  0  0  0  0  0  0
    6.7431   -0.3730   19.5810 C   0  0  0  0  0  0  0  0  0  0  0  0
    5.9538   -0.9244   17.8608 C   0  0  0  0  0  0  0  0  0  0  0  0
    4.5692   -1.5777   17.4984 C   0  0  0  0  0  0  0  0  0  0  0  0
    4.0855   -1.9587   16.1033 C   0  0  0  0  0  0  0  0  0  0  0  0
    4.9760   -1.7884   14.9860 C   0  0  0  0  0  0  0  0  0  0  0  0
    4.8753   -2.0361   13.5987 C   0  0  0  0  0  0  0  0  0  0  0  0
    6.0828   -1.7103   13.0384 C   0  0  0  0  0  0  0  0  0  0  0  0
    6.9799   -1.4381   14.0489 N   0  0  0  0  0  0  0  0  0  0  0  0
    6.2793   -1.2610   15.2330 C   0  0  0  0  0  0  0  0  0  0  0  0
    6.6703   -0.6753   16.5330 C   0  0  0  0  0  0  0  0  0  0  0  0
    4.4929    0.4966   21.9746 C   0  0  0  0  0  0  0  0  0  0  0  0
    4.2711    0.3471   24.0479 C   0  0  0  0  0  0  0  0  0  0  0  0
    3.5432   -0.5690   25.0780 C   0  0  0  0  0  0  0  0  0  0  0  0
    4.0180   -1.9270   25.0451 N   0  0  0  0  0  0  0  0  0  0  0  0
    3.9872   -2.1811   26.4270 C   0  0  0  0  0  0  0  0  0  0  0  0
    2.9775   -2.5898   26.9913 O   0  0  0  0  0  0  0  0  0  0  0  0
    5.1680   -1.7083   26.9796 N   0  0  0  0  0  0  0  0  0  0  0  0
    5.4019   -1.8662   28.3833 C   0  0  0  0  0  0  0  0  0  0  0  0
    4.3251   -1.9284   29.3002 C   0  0  0  0  0  0  0  0  0  0  0  0
    4.5071   -2.2488   30.6480 C   0  0  0  0  0  0  0  0  0  0  0  0
    5.7866   -2.4876   31.1207 C   0  0  0  0  0  0  0  0  0  0  0  0
    6.8696   -2.3875   30.2478 C   0  0  0  0  0  0  0  0  0  0  0  0
    6.6817   -2.0732   28.8934 C   0  0  0  0  0  0  0  0  0  0  0  0
    5.8941   -2.8950   24.3858 H   0  0  0  0  0  0  0  0  0  0  0  0
    5.1875   -2.5546   21.6961 H   0  0  0  0  0  0  0  0  0  0  0  0
    6.1627   -2.7405   22.5553 H   0  0  0  0  0  0  0  0  0  0  0  0
    7.7136   -0.8243   19.7006 H   0  0  0  0  0  0  0  0  0  0  0  0
    7.0119    0.6789   19.4654 H   0  0  0  0  0  0  0  0  0  0  0  0
    3.7742   -1.7642   18.1757 H   0  0  0  0  0  0  0  0  0  0  0  0
    3.0915   -2.3778   15.9780 H   0  0  0  0  0  0  0  0  0  0  0  0
    4.0046   -2.3851   13.0607 H   0  0  0  0  0  0  0  0  0  0  0  0
    6.4114   -1.6861   12.0083 H   0  0  0  0  0  0  0  0  0  0  0  0
    7.9372   -1.1523   13.8717 H   0  0  0  0  0  0  0  0  0  0  0  0
    7.5189   -0.0450   16.6032 H   0  0  0  0  0  0  0  0  0  0  0  0
    5.3088    1.1579   21.8373 H   0  0  0  0  0  0  0  0  0  0  0  0
    3.6130    0.8579   21.4785 H   0  0  0  0  0  0  0  0  0  0  0  0
    4.3512   -0.6387   23.6852 H   0  0  0  0  0  0  0  0  0  0  0  0
    3.4364    1.0850   24.2293 H   0  0  0  0  0  0  0  0  0  0  0  0
    2.4928   -0.7097   24.9597 H   0  0  0  0  0  0  0  0  0  0  0  0
    3.6537   -0.0545   26.0483 H   0  0  0  0  0  0  0  0  0  0  0  0
    3.3050   -1.7202   28.9867 H   0  0  0  0  0  0  0  0  0  0  0  0
    3.6516   -2.3002   31.3158 H   0  0  0  0  0  0  0  0  0  0  0  0
    5.9481   -2.7322   32.1668 H   0  0  0  0  0  0  0  0  0  0  0  0
    7.8779   -2.5607   30.6172 H   0  0  0  0  0  0  0  0  0  0  0  0
    7.5548   -2.0456   28.2468 H   0  0  0  0  0  0  0  0  0  0  0  0
  1  2  2  0
  2  3  1  0
  3  4  1  0
  4  5  1  0
  5  6  1  0
  6  7  1  0
  7  8  2  0
  8  9  1  0
  9 10  2  0
 10 11  1  0
 11 12  2  0
 12 13  1  0
 13 14  1  0
 14 15  2  0
  5 16  1  0
 16 17  1  0
 17 18  1  0
 18 19  1  0
 19 20  1  0
 20 21  2  0
 20 22  1  0
 22 23  1  0
 23 24  2  0
 24 25  1  0
 25 26  2  0
 26 27  1  0
 27 28  2  0
 22  2  1  0
 28 23  1  0
 19  3  1  0
 15  7  1  0
 14 10  1  0
  3 29  1  0
  4 30  1  0
  4 31  1  0
  6 32  1  0
  6 33  1  0
  8 34  1  0
  9 35  1  0
 11 36  1  0
 12 37  1  0
 13 38  1  0
 15 39  1  0
 16 40  1  0
 16 41  1  0
 17 42  1  0
 17 43  1  0
 18 44  1  0
 18 45  1  0
 24 46  1  0
 25 47  1  0
 26 48  1  0
 27 49  1  0
 28 50  1  0
M  END
>  <Energy>  (932) 
681.05648691106455

>  <compound_id>  (932) 
52469

>  <target_id>  (932) 
1

>  <reference_id>  (932) 
76

>  <inspiration_ids>  (932) 
[40, 76]

>  <energy_score>  (932) 
591.4214148128663

>  <distance_score>  (932) 
7.793388174066515

>  <path>  (932) 
/opt/xchem-fragalysis-2/maxwin/BulkDock/SCRATCH/511024/C52469-P76/C52469-P76.minimised.mol

>  <scratch_subdir>  (932) 
/opt/xchem-fragalysis-2/maxwin/BulkDock/SCRATCH/511024/C52469-P76

>  <fragmenstein_runtime>  (932) 
16.4887752532959

>  <fragmenstein_outcome>  (932) 
too moved

>  <fragmenstein_mode>  (932) 
expansion

>  <fragmenstein_error>  (932) 


$$$$
C52470-P40
     RDKit          3D

 52 56  0  0  0  0  0  0  0  0999 V2000
    7.6058    0.3811   19.5975 O   0  0  0  0  0  0  0  0  0  0  0  0
    7.3046    1.5268   19.8629 C   0  0  0  0  0  0  0  0  0  0  0  0
    6.0510    2.0111   21.3932 C   0  0  0  0  0  0  0  0  0  0  0  0
    4.6649    1.5698   22.8177 C   0  0  0  0  0  0  0  0  0  0  0  0
    4.7723    0.5023   23.9186 C   0  0  0  0  0  0  0  0  0  0  0  0
    4.0997    0.8267   25.0544 N   0  0  0  0  0  0  0  0  0  0  0  0
    3.4426    2.0066   24.9030 C   0  0  0  0  0  0  0  0  0  0  0  0
    2.5933    2.6000   25.8486 C   0  0  0  0  0  0  0  0  0  0  0  0
    1.9866    3.7961   25.5140 C   0  0  0  0  0  0  0  0  0  0  0  0
    2.2652    4.3854   24.2897 C   0  0  0  0  0  0  0  0  0  0  0  0
    3.1444    3.7921   23.3619 C   0  0  0  0  0  0  0  0  0  0  0  0
    3.7414    2.5409   23.6244 C   0  0  0  0  0  0  0  0  0  0  0  0
    7.6382    2.8405   19.1182 N   0  0  0  0  0  0  0  0  0  0  0  0
    8.3026    3.0625   17.8468 C   0  0  0  0  0  0  0  0  0  0  0  0
    7.8176    4.5110   17.3489 C   0  0  0  0  0  0  0  0  0  0  0  0
    7.8779    5.6844   18.4249 C   0  0  0  0  0  0  0  0  0  0  0  0
    9.2173    5.8064   19.0026 N   0  0  0  0  0  0  0  0  0  0  0  0
    9.5709    6.1731   20.3766 C   0  0  0  0  0  0  0  0  0  0  0  0
    8.7961    6.6615   21.1831 O   0  0  0  0  0  0  0  0  0  0  0  0
   10.8752    5.6659   20.5891 N   0  0  0  0  0  0  0  0  0  0  0  0
   11.3576    4.8571   21.6709 C   0  0  0  0  0  0  0  0  0  0  0  0
   12.5662    4.1294   21.5149 C   0  0  0  0  0  0  0  0  0  0  0  0
   12.9264    3.0998   22.3849 C   0  0  0  0  0  0  0  0  0  0  0  0
   12.0882    2.7746   23.4362 C   0  0  0  0  0  0  0  0  0  0  0  0
   10.9440    3.5387   23.6557 C   0  0  0  0  0  0  0  0  0  0  0  0
   10.5895    4.5893   22.7933 C   0  0  0  0  0  0  0  0  0  0  0  0
   11.2289    5.2005   19.3733 C   0  0  0  0  0  0  0  0  0  0  0  0
   12.2762    5.4264   18.7769 O   0  0  0  0  0  0  0  0  0  0  0  0
    9.9615    4.6141   18.8202 C   0  0  0  0  0  0  0  0  0  0  0  0
    9.0478    3.4859   19.6820 C   0  0  0  0  0  0  0  0  0  0  0  0
    5.0404    1.2256   21.0545 H   0  0  0  0  0  0  0  0  0  0  0  0
    6.0558    3.0161   20.8976 H   0  0  0  0  0  0  0  0  0  0  0  0
    5.0909   -0.5146   23.8306 H   0  0  0  0  0  0  0  0  0  0  0  0
    3.9991    0.2148   25.8498 H   0  0  0  0  0  0  0  0  0  0  0  0
    2.3987    2.1285   26.8066 H   0  0  0  0  0  0  0  0  0  0  0  0
    1.3084    4.2796   26.2110 H   0  0  0  0  0  0  0  0  0  0  0  0
    1.8009    5.3357   24.0346 H   0  0  0  0  0  0  0  0  0  0  0  0
    3.3199    4.3048   22.4209 H   0  0  0  0  0  0  0  0  0  0  0  0
    9.3257    2.6880   17.6944 H   0  0  0  0  0  0  0  0  0  0  0  0
    7.8189    2.3841   17.1396 H   0  0  0  0  0  0  0  0  0  0  0  0
    8.3929    4.7864   16.4564 H   0  0  0  0  0  0  0  0  0  0  0  0
    6.7704    4.4289   17.0291 H   0  0  0  0  0  0  0  0  0  0  0  0
    7.6318    6.6406   17.9528 H   0  0  0  0  0  0  0  0  0  0  0  0
    7.1528    5.5113   19.2278 H   0  0  0  0  0  0  0  0  0  0  0  0
   13.2422    4.3330   20.6857 H   0  0  0  0  0  0  0  0  0  0  0  0
   13.8443    2.5406   22.2238 H   0  0  0  0  0  0  0  0  0  0  0  0
   12.3377    1.9554   24.1068 H   0  0  0  0  0  0  0  0  0  0  0  0
   10.3132    3.3148   24.5146 H   0  0  0  0  0  0  0  0  0  0  0  0
    9.6796    5.1491   22.9968 H   0  0  0  0  0  0  0  0  0  0  0  0
   10.1534    4.4448   17.7574 H   0  0  0  0  0  0  0  0  0  0  0  0
    8.7249    3.9932   20.5863 H   0  0  0  0  0  0  0  0  0  0  0  0
    9.6874    2.6710   20.0125 H   0  0  0  0  0  0  0  0  0  0  0  0
  1  2  2  0
  2  3  1  0
  3  4  1  0
  4  5  2  0
  5  6  1  0
  6  7  1  0
  7  8  2  0
  8  9  1  0
  9 10  2  0
 10 11  1  0
 11 12  2  0
  2 13  1  0
 13 14  1  0
 14 15  1  0
 15 16  1  0
 16 17  1  0
 17 18  1  0
 18 19  2  0
 18 20  1  0
 20 21  1  0
 21 22  2  0
 22 23  1  0
 23 24  2  0
 24 25  1  0
 25 26  2  0
 20 27  1  0
 27 28  2  0
 27 29  1  0
 29 30  1  0
 12  4  1  0
 30 13  1  0
 12  7  1  0
 29 17  1  0
 26 21  1  0
  3 31  1  0
  3 32  1  0
  5 33  1  0
  6 34  1  0
  8 35  1  0
  9 36  1  0
 10 37  1  0
 11 38  1  0
 14 39  1  0
 14 40  1  0
 15 41  1  0
 15 42  1  0
 16 43  1  0
 16 44  1  0
 22 45  1  0
 23 46  1  0
 24 47  1  0
 25 48  1  0
 26 49  1  0
 29 50  1  0
 30 51  1  0
 30 52  1  0
M  END
>  <Energy>  (933) 
457.48023923407897

>  <compound_id>  (933) 
52470

>  <target_id>  (933) 
1

>  <reference_id>  (933) 
40

>  <inspiration_ids>  (933) 
[40, 76]

>  <energy_score>  (933) 
363.8597846463116

>  <distance_score>  (933) 
9.8766308675373

>  <path>  (933) 
/opt/xchem-fragalysis-2/maxwin/BulkDock/SCRATCH/511024/C52470-P40/C52470-P40.minimised.mol

>  <scratch_subdir>  (933) 
/opt/xchem-fragalysis-2/maxwin/BulkDock/SCRATCH/511024/C52470-P40

>  <fragmenstein_runtime>  (933) 
21.79254460334778

>  <fragmenstein_outcome>  (933) 
too moved

>  <fragmenstein_mode>  (933) 
expansion

>  <fragmenstein_error>  (933) 


$$$$
C52470-P76
     RDKit          3D

 52 56  0  0  0  0  0  0  0  0999 V2000
    8.1202    0.6186   19.2610 O   0  0  0  0  0  0  0  0  0  0  0  0
    7.3687   -0.2818   18.9593 C   0  0  0  0  0  0  0  0  0  0  0  0
    6.6587   -1.1751   20.6689 C   0  0  0  0  0  0  0  0  0  0  0  0
    5.4017   -1.7274   22.1877 C   0  0  0  0  0  0  0  0  0  0  0  0
    5.9252   -2.3747   23.3334 C   0  0  0  0  0  0  0  0  0  0  0  0
    5.7721   -1.9601   24.6623 N   0  0  0  0  0  0  0  0  0  0  0  0
    4.7821   -1.0402   24.8148 C   0  0  0  0  0  0  0  0  0  0  0  0
    4.3089   -0.5875   26.0584 C   0  0  0  0  0  0  0  0  0  0  0  0
    3.3674   -1.4203   26.5600 C   0  0  0  0  0  0  0  0  0  0  0  0
    2.9186   -2.3594   25.6725 C   0  0  0  0  0  0  0  0  0  0  0  0
    3.2387   -2.3627   24.2183 C   0  0  0  0  0  0  0  0  0  0  0  0
    4.2753   -1.5334   23.6261 C   0  0  0  0  0  0  0  0  0  0  0  0
    6.9891   -0.4516   17.1228 N   0  0  0  0  0  0  0  0  0  0  0  0
    7.3749    0.4349   15.9049 C   0  0  0  0  0  0  0  0  0  0  0  0
    8.3912    0.3969   14.5249 C   0  0  0  0  0  0  0  0  0  0  0  0
    9.7321    0.2865   13.8958 C   0  0  0  0  0  0  0  0  0  0  0  0
   10.3836   -0.8214   14.4886 N   0  0  0  0  0  0  0  0  0  0  0  0
   11.7309   -1.0891   14.2376 C   0  0  0  0  0  0  0  0  0  0  0  0
   12.4132   -0.4915   13.4184 O   0  0  0  0  0  0  0  0  0  0  0  0
   12.1162   -2.0442   15.1360 N   0  0  0  0  0  0  0  0  0  0  0  0
   13.4594   -2.3691   15.5016 C   0  0  0  0  0  0  0  0  0  0  0  0
   14.5635   -1.7788   14.8676 C   0  0  0  0  0  0  0  0  0  0  0  0
   15.8767   -2.0741   15.2531 C   0  0  0  0  0  0  0  0  0  0  0  0
   16.1172   -2.9577   16.2968 C   0  0  0  0  0  0  0  0  0  0  0  0
   15.0469   -3.5395   16.9589 C   0  0  0  0  0  0  0  0  0  0  0  0
   13.7375   -3.2461   16.5674 C   0  0  0  0  0  0  0  0  0  0  0  0
   10.9794   -2.6192   15.6495 C   0  0  0  0  0  0  0  0  0  0  0  0
   10.9904   -3.7069   16.2073 O   0  0  0  0  0  0  0  0  0  0  0  0
    9.6624   -1.8137   15.2514 C   0  0  0  0  0  0  0  0  0  0  0  0
    7.9667   -1.5149   15.8950 C   0  0  0  0  0  0  0  0  0  0  0  0
    6.2136   -2.1540   20.4395 H   0  0  0  0  0  0  0  0  0  0  0  0
    6.1963   -0.2050   20.9300 H   0  0  0  0  0  0  0  0  0  0  0  0
    6.5738   -3.2909   23.3089 H   0  0  0  0  0  0  0  0  0  0  0  0
    6.2567   -2.3673   25.4484 H   0  0  0  0  0  0  0  0  0  0  0  0
    4.9313   -0.0049   26.7275 H   0  0  0  0  0  0  0  0  0  0  0  0
    3.0519   -1.3973   27.5926 H   0  0  0  0  0  0  0  0  0  0  0  0
    2.2327   -3.0716   26.1012 H   0  0  0  0  0  0  0  0  0  0  0  0
    2.7046   -2.9920   23.5296 H   0  0  0  0  0  0  0  0  0  0  0  0
    7.6363    1.4114   16.3561 H   0  0  0  0  0  0  0  0  0  0  0  0
    6.3591    0.5510   15.5059 H   0  0  0  0  0  0  0  0  0  0  0  0
    7.8367   -0.1364   13.7431 H   0  0  0  0  0  0  0  0  0  0  0  0
    8.5668    1.4541   14.6622 H   0  0  0  0  0  0  0  0  0  0  0  0
   10.3045    1.2208   13.8353 H   0  0  0  0  0  0  0  0  0  0  0  0
    9.6490    0.2112   12.8150 H   0  0  0  0  0  0  0  0  0  0  0  0
   14.4485   -1.0810   14.0434 H   0  0  0  0  0  0  0  0  0  0  0  0
   16.7082   -1.6104   14.7279 H   0  0  0  0  0  0  0  0  0  0  0  0
   17.1371   -3.1863   16.5936 H   0  0  0  0  0  0  0  0  0  0  0  0
   15.2264   -4.2194   17.7873 H   0  0  0  0  0  0  0  0  0  0  0  0
   12.9536   -3.7255   17.1450 H   0  0  0  0  0  0  0  0  0  0  0  0
    9.3158   -2.5616   14.5370 H   0  0  0  0  0  0  0  0  0  0  0  0
    7.5866   -2.5199   15.8806 H   0  0  0  0  0  0  0  0  0  0  0  0
    7.3349   -1.4172   14.9857 H   0  0  0  0  0  0  0  0  0  0  0  0
  1  2  2  0
  2  3  1  0
  3  4  1  0
  4  5  2  0
  5  6  1  0
  6  7  1  0
  7  8  2  0
  8  9  1  0
  9 10  2  0
 10 11  1  0
 11 12  2  0
  2 13  1  0
 13 14  1  0
 14 15  1  0
 15 16  1  0
 16 17  1  0
 17 18  1  0
 18 19  2  0
 18 20  1  0
 20 21  1  0
 21 22  2  0
 22 23  1  0
 23 24  2  0
 24 25  1  0
 25 26  2  0
 20 27  1  0
 27 28  2  0
 27 29  1  0
 29 30  1  0
 12  4  1  0
 30 13  1  0
 12  7  1  0
 29 17  1  0
 26 21  1  0
  3 31  1  0
  3 32  1  0
  5 33  1  0
  6 34  1  0
  8 35  1  0
  9 36  1  0
 10 37  1  0
 11 38  1  0
 14 39  1  0
 14 40  1  0
 15 41  1  0
 15 42  1  0
 16 43  1  0
 16 44  1  0
 22 45  1  0
 23 46  1  0
 24 47  1  0
 25 48  1  0
 26 49  1  0
 29 50  1  0
 30 51  1  0
 30 52  1  0
M  END
>  <Energy>  (934) 
927.25759609231284

>  <compound_id>  (934) 
52470

>  <target_id>  (934) 
1

>  <reference_id>  (934) 
76

>  <inspiration_ids>  (934) 
[40, 76]

>  <energy_score>  (934) 
833.6371415045433

>  <distance_score>  (934) 
6.176120620091938

>  <path>  (934) 
/opt/xchem-fragalysis-2/maxwin/BulkDock/SCRATCH/511024/C52470-P76/C52470-P76.minimised.mol

>  <scratch_subdir>  (934) 
/opt/xchem-fragalysis-2/maxwin/BulkDock/SCRATCH/511024/C52470-P76

>  <fragmenstein_runtime>  (934) 
12.79814338684082

>  <fragmenstein_outcome>  (934) 
too moved

>  <fragmenstein_mode>  (934) 
expansion

>  <fragmenstein_error>  (934) 


$$$$
C9161-P40
     RDKit          3D

 44 47  0  0  0  0  0  0  0  0999 V2000
    8.9526   -2.0120   28.1637 C   0  0  0  0  0  0  0  0  0  0  0  0
    9.0933   -2.8461   26.9535 N   0  0  0  0  0  0  0  0  0  0  0  0
    8.2800   -4.1010   27.1289 C   0  0  0  0  0  0  0  0  0  0  0  0
    6.7495   -3.9733   27.3190 C   0  0  0  0  0  0  0  0  0  0  0  0
    6.0221   -2.8483   26.9045 C   0  0  0  0  0  0  0  0  0  0  0  0
    4.6332   -2.7323   27.0830 C   0  0  0  0  0  0  0  0  0  0  0  0
    3.9582   -3.8190   27.6406 C   0  0  0  0  0  0  0  0  0  0  0  0
    2.6235   -3.9840   27.9319 N   0  0  0  0  0  0  0  0  0  0  0  0
    2.4007   -5.2499   28.4120 C   0  0  0  0  0  0  0  0  0  0  0  0
    3.6168   -5.8928   28.4651 C   0  0  0  0  0  0  0  0  0  0  0  0
    4.6155   -4.9904   28.0062 C   0  0  0  0  0  0  0  0  0  0  0  0
    6.0221   -5.0614   27.8567 C   0  0  0  0  0  0  0  0  0  0  0  0
   10.5831   -3.0855   26.7762 C   0  0  0  0  0  0  0  0  0  0  0  0
   11.2005   -3.3677   25.3953 C   0  0  0  0  0  0  0  0  0  0  0  0
   11.4043   -4.6441   24.8363 C   0  0  0  0  0  0  0  0  0  0  0  0
   12.0853   -4.6576   23.6920 N   0  0  0  0  0  0  0  0  0  0  0  0
   12.4461   -3.3679   23.4815 N   0  0  0  0  0  0  0  0  0  0  0  0
   13.2612   -3.0546   22.3375 C   0  0  0  0  0  0  0  0  0  0  0  0
   13.9517   -1.8455   22.2219 C   0  0  0  0  0  0  0  0  0  0  0  0
   14.7060   -1.5693   21.0691 C   0  0  0  0  0  0  0  0  0  0  0  0
   14.7795   -2.4922   20.0240 C   0  0  0  0  0  0  0  0  0  0  0  0
   14.1074   -3.7044   20.1323 C   0  0  0  0  0  0  0  0  0  0  0  0
   13.3630   -3.9867   21.2845 C   0  0  0  0  0  0  0  0  0  0  0  0
   11.9668   -2.5743   24.5327 C   0  0  0  0  0  0  0  0  0  0  0  0
    9.4793   -1.0592   28.0330 H   0  0  0  0  0  0  0  0  0  0  0  0
    9.3582   -2.5115   29.0516 H   0  0  0  0  0  0  0  0  0  0  0  0
    7.9158   -1.7395   28.3749 H   0  0  0  0  0  0  0  0  0  0  0  0
    8.6754   -4.6516   27.9933 H   0  0  0  0  0  0  0  0  0  0  0  0
    8.4339   -4.7346   26.2483 H   0  0  0  0  0  0  0  0  0  0  0  0
    6.5498   -2.0282   26.4166 H   0  0  0  0  0  0  0  0  0  0  0  0
    4.1149   -1.8315   26.7705 H   0  0  0  0  0  0  0  0  0  0  0  0
    1.9224   -3.2641   27.8076 H   0  0  0  0  0  0  0  0  0  0  0  0
    1.4051   -5.5630   28.6906 H   0  0  0  0  0  0  0  0  0  0  0  0
    3.8000   -6.8983   28.8051 H   0  0  0  0  0  0  0  0  0  0  0  0
    6.5438   -5.9711   28.1419 H   0  0  0  0  0  0  0  0  0  0  0  0
   11.1149   -2.1830   27.1124 H   0  0  0  0  0  0  0  0  0  0  0  0
   10.8996   -3.8811   27.4651 H   0  0  0  0  0  0  0  0  0  0  0  0
   11.0724   -5.5920   25.2407 H   0  0  0  0  0  0  0  0  0  0  0  0
   13.9081   -1.0984   23.0097 H   0  0  0  0  0  0  0  0  0  0  0  0
   15.2374   -0.6239   20.9917 H   0  0  0  0  0  0  0  0  0  0  0  0
   15.3633   -2.2718   19.1349 H   0  0  0  0  0  0  0  0  0  0  0  0
   14.1524   -4.4372   19.3281 H   0  0  0  0  0  0  0  0  0  0  0  0
   12.8336   -4.9372   21.3334 H   0  0  0  0  0  0  0  0  0  0  0  0
   12.2057   -1.5225   24.5704 H   0  0  0  0  0  0  0  0  0  0  0  0
  1  2  1  0
  2  3  1  0
  3  4  1  0
  4  5  2  0
  5  6  1  0
  6  7  2  0
  7  8  1  0
  8  9  1  0
  9 10  2  0
 10 11  1  0
 11 12  2  0
  2 13  1  0
 13 14  1  0
 14 15  1  0
 15 16  2  0
 16 17  1  0
 17 18  1  0
 18 19  2  0
 19 20  1  0
 20 21  2  0
 21 22  1  0
 22 23  2  0
 17 24  1  0
 12  4  1  0
 24 14  2  0
 11  7  1  0
 23 18  1  0
  1 25  1  0
  1 26  1  0
  1 27  1  0
  3 28  1  0
  3 29  1  0
  5 30  1  0
  6 31  1  0
  8 32  1  0
  9 33  1  0
 10 34  1  0
 12 35  1  0
 13 36  1  0
 13 37  1  0
 15 38  1  0
 19 39  1  0
 20 40  1  0
 21 41  1  0
 22 42  1  0
 23 43  1  0
 24 44  1  0
M  END
>  <Energy>  (935) 
77.033437871673655

>  <compound_id>  (935) 
9161

>  <target_id>  (935) 
1

>  <reference_id>  (935) 
40

>  <inspiration_ids>  (935) 
[40, 76]

>  <energy_score>  (935) 
-12.748022877509868

>  <distance_score>  (935) 
8.166118567150962

>  <path>  (935) 
/opt/xchem-fragalysis-2/maxwin/BulkDock/SCRATCH/511024/C9161-P40/C9161-P40.minimised.mol

>  <scratch_subdir>  (935) 
/opt/xchem-fragalysis-2/maxwin/BulkDock/SCRATCH/511024/C9161-P40

>  <fragmenstein_runtime>  (935) 
9.95153546333313

>  <fragmenstein_outcome>  (935) 
too moved

>  <fragmenstein_mode>  (935) 
expansion

>  <fragmenstein_error>  (935) 


$$$$
C9161-P76
     RDKit          3D

 44 47  0  0  0  0  0  0  0  0999 V2000
   11.4045    1.5447   22.8757 C   0  0  0  0  0  0  0  0  0  0  0  0
    9.9524    1.2350   22.4310 N   0  0  0  0  0  0  0  0  0  0  0  0
    9.3104    2.1023   23.6097 C   0  0  0  0  0  0  0  0  0  0  0  0
    9.1337    1.3441   25.0750 C   0  0  0  0  0  0  0  0  0  0  0  0
    9.6847    0.0710   25.3151 C   0  0  0  0  0  0  0  0  0  0  0  0
    9.0973   -0.8650   26.1926 C   0  0  0  0  0  0  0  0  0  0  0  0
    7.9507   -0.4695   26.8753 C   0  0  0  0  0  0  0  0  0  0  0  0
    7.0223   -1.2078   27.5751 N   0  0  0  0  0  0  0  0  0  0  0  0
    6.0758   -0.3775   28.1137 C   0  0  0  0  0  0  0  0  0  0  0  0
    6.3847    0.9100   27.7290 C   0  0  0  0  0  0  0  0  0  0  0  0
    7.5408    0.8605   26.8911 C   0  0  0  0  0  0  0  0  0  0  0  0
    8.2311    1.8059   26.0648 C   0  0  0  0  0  0  0  0  0  0  0  0
    9.4179    1.0335   20.6444 C   0  0  0  0  0  0  0  0  0  0  0  0
    9.9046   -0.4416   19.3582 C   0  0  0  0  0  0  0  0  0  0  0  0
   11.3344    0.1762   20.8152 C   0  0  0  0  0  0  0  0  0  0  0  0
   13.0100   -0.5248   20.4937 N   0  0  0  0  0  0  0  0  0  0  0  0
   13.1700   -0.8755   18.6878 N   0  0  0  0  0  0  0  0  0  0  0  0
   14.3763   -1.5164   18.1903 C   0  0  0  0  0  0  0  0  0  0  0  0
   14.3768   -2.1846   16.9543 C   0  0  0  0  0  0  0  0  0  0  0  0
   15.5439   -2.7908   16.4967 C   0  0  0  0  0  0  0  0  0  0  0  0
   16.7002   -2.7316   17.2684 C   0  0  0  0  0  0  0  0  0  0  0  0
   16.6916   -2.0722   18.4995 C   0  0  0  0  0  0  0  0  0  0  0  0
   15.5281   -1.4628   18.9686 C   0  0  0  0  0  0  0  0  0  0  0  0
   11.3074   -1.0486   17.8254 C   0  0  0  0  0  0  0  0  0  0  0  0
   12.1008    0.7043   22.8056 H   0  0  0  0  0  0  0  0  0  0  0  0
   11.5028    1.7403   23.9537 H   0  0  0  0  0  0  0  0  0  0  0  0
   11.7784    2.4593   22.3953 H   0  0  0  0  0  0  0  0  0  0  0  0
    9.9370    2.9833   23.8272 H   0  0  0  0  0  0  0  0  0  0  0  0
    8.4334    2.5993   23.2521 H   0  0  0  0  0  0  0  0  0  0  0  0
   10.5126   -0.2785   24.7030 H   0  0  0  0  0  0  0  0  0  0  0  0
    9.4612   -1.8876   26.2255 H   0  0  0  0  0  0  0  0  0  0  0  0
    6.9976   -2.2189   27.5976 H   0  0  0  0  0  0  0  0  0  0  0  0
    5.2525   -0.7756   28.6901 H   0  0  0  0  0  0  0  0  0  0  0  0
    5.7980    1.7888   27.9593 H   0  0  0  0  0  0  0  0  0  0  0  0
    7.8693    2.8310   26.0407 H   0  0  0  0  0  0  0  0  0  0  0  0
    8.3358    1.0914   20.5504 H   0  0  0  0  0  0  0  0  0  0  0  0
    9.7409    1.9900   20.1855 H   0  0  0  0  0  0  0  0  0  0  0  0
   11.4984    1.2707   20.9104 H   0  0  0  0  0  0  0  0  0  0  0  0
   13.4974   -2.2523   16.3225 H   0  0  0  0  0  0  0  0  0  0  0  0
   15.5608   -3.3049   15.5390 H   0  0  0  0  0  0  0  0  0  0  0  0
   17.6139   -3.2031   16.9140 H   0  0  0  0  0  0  0  0  0  0  0  0
   17.5973   -2.0380   19.1010 H   0  0  0  0  0  0  0  0  0  0  0  0
   15.5342   -0.9640   19.9364 H   0  0  0  0  0  0  0  0  0  0  0  0
   11.4402   -1.8848   17.0300 H   0  0  0  0  0  0  0  0  0  0  0  0
  1  2  1  0
  2  3  1  0
  3  4  1  0
  4  5  2  0
  5  6  1  0
  6  7  2  0
  7  8  1  0
  8  9  1  0
  9 10  2  0
 10 11  1  0
 11 12  2  0
  2 13  1  0
 13 14  1  0
 14 15  1  0
 15 16  2  0
 16 17  1  0
 17 18  1  0
 18 19  2  0
 19 20  1  0
 20 21  2  0
 21 22  1  0
 22 23  2  0
 17 24  1  0
 12  4  1  0
 24 14  2  0
 11  7  1  0
 23 18  1  0
  1 25  1  0
  1 26  1  0
  1 27  1  0
  3 28  1  0
  3 29  1  0
  5 30  1  0
  6 31  1  0
  8 32  1  0
  9 33  1  0
 10 34  1  0
 12 35  1  0
 13 36  1  0
 13 37  1  0
 15 38  1  0
 19 39  1  0
 20 40  1  0
 21 41  1  0
 22 42  1  0
 23 43  1  0
 24 44  1  0
M  END
>  <Energy>  (936) 
1100.5813921501176

>  <compound_id>  (936) 
9161

>  <target_id>  (936) 
1

>  <reference_id>  (936) 
76

>  <inspiration_ids>  (936) 
[40, 76]

>  <energy_score>  (936) 
1010.7999314009295

>  <distance_score>  (936) 
9.206507113944085

>  <path>  (936) 
/opt/xchem-fragalysis-2/maxwin/BulkDock/SCRATCH/511024/C9161-P76/C9161-P76.minimised.mol

>  <scratch_subdir>  (936) 
/opt/xchem-fragalysis-2/maxwin/BulkDock/SCRATCH/511024/C9161-P76

>  <fragmenstein_runtime>  (936) 
10.159096240997314

>  <fragmenstein_outcome>  (936) 
too moved

>  <fragmenstein_mode>  (936) 
expansion

>  <fragmenstein_error>  (936) 


$$$$
C52474-P40
     RDKit          3D

 38 40  0  0  0  0  0  0  0  0999 V2000
    7.1402   -4.4274   19.8776 O   0  0  0  0  0  0  0  0  0  0  0  0
    6.8218   -5.5234   19.5794 C   0  0  0  0  0  0  0  0  0  0  0  0
    6.6408   -6.6810   21.2639 C   0  0  0  0  0  0  0  0  0  0  0  0
    6.2638   -6.4638   23.1152 C   0  0  0  0  0  0  0  0  0  0  0  0
    6.4726   -5.2859   23.7641 C   0  0  0  0  0  0  0  0  0  0  0  0
    6.2786   -5.2387   25.0968 N   0  0  0  0  0  0  0  0  0  0  0  0
    5.3656   -6.1853   25.4015 C   0  0  0  0  0  0  0  0  0  0  0  0
    4.5735   -6.2577   26.5598 C   0  0  0  0  0  0  0  0  0  0  0  0
    3.5678   -7.2028   26.5964 C   0  0  0  0  0  0  0  0  0  0  0  0
    3.4200   -8.0711   25.5298 C   0  0  0  0  0  0  0  0  0  0  0  0
    4.2588   -7.9886   24.4043 C   0  0  0  0  0  0  0  0  0  0  0  0
    5.2853   -7.0123   24.2541 C   0  0  0  0  0  0  0  0  0  0  0  0
    6.6537   -6.1594   18.1923 N   0  0  0  0  0  0  0  0  0  0  0  0
    6.9980   -5.5013   16.5217 C   0  0  0  0  0  0  0  0  0  0  0  0
    8.1936   -4.0899   15.7481 C   0  0  0  0  0  0  0  0  0  0  0  0
    8.9069   -3.2469   15.1562 C   0  0  0  0  0  0  0  0  0  0  0  0
   10.1203   -2.4356   14.9475 C   0  0  0  0  0  0  0  0  0  0  0  0
   10.0974   -1.0437   15.0361 C   0  0  0  0  0  0  0  0  0  0  0  0
   11.2893   -0.3148   14.9414 C   0  0  0  0  0  0  0  0  0  0  0  0
   12.5143   -0.9733   14.8236 C   0  0  0  0  0  0  0  0  0  0  0  0
   12.5517   -2.3631   14.7861 C   0  0  0  0  0  0  0  0  0  0  0  0
   11.3613   -3.0876   14.8487 C   0  0  0  0  0  0  0  0  0  0  0  0
    6.9501   -7.4454   20.5871 H   0  0  0  0  0  0  0  0  0  0  0  0
    5.8381   -7.3474   21.4577 H   0  0  0  0  0  0  0  0  0  0  0  0
    6.6727   -4.3898   23.2410 H   0  0  0  0  0  0  0  0  0  0  0  0
    6.4923   -4.4176   25.6459 H   0  0  0  0  0  0  0  0  0  0  0  0
    4.7126   -5.5512   27.3713 H   0  0  0  0  0  0  0  0  0  0  0  0
    2.9156   -7.2559   27.4571 H   0  0  0  0  0  0  0  0  0  0  0  0
    2.6554   -8.8428   25.5224 H   0  0  0  0  0  0  0  0  0  0  0  0
    4.0422   -8.6804   23.6124 H   0  0  0  0  0  0  0  0  0  0  0  0
    6.2897   -7.0940   18.2953 H   0  0  0  0  0  0  0  0  0  0  0  0
    5.9482   -5.2244   16.4546 H   0  0  0  0  0  0  0  0  0  0  0  0
    7.0369   -6.3044   15.7903 H   0  0  0  0  0  0  0  0  0  0  0  0
    9.1502   -0.5187   15.1334 H   0  0  0  0  0  0  0  0  0  0  0  0
   11.2544    0.7713   14.9656 H   0  0  0  0  0  0  0  0  0  0  0  0
   13.4358   -0.4007   14.7669 H   0  0  0  0  0  0  0  0  0  0  0  0
   13.5012   -2.8869   14.7188 H   0  0  0  0  0  0  0  0  0  0  0  0
   11.4106   -4.1730   14.8604 H   0  0  0  0  0  0  0  0  0  0  0  0
  1  2  2  0
  2  3  1  0
  3  4  1  0
  4  5  2  0
  5  6  1  0
  6  7  1  0
  7  8  2  0
  8  9  1  0
  9 10  2  0
 10 11  1  0
 11 12  2  0
  2 13  1  0
 13 14  1  0
 14 15  1  0
 15 16  3  0
 16 17  1  0
 17 18  2  0
 18 19  1  0
 19 20  2  0
 20 21  1  0
 21 22  2  0
 12  4  1  0
 22 17  1  0
 12  7  1  0
  3 23  1  0
  3 24  1  0
  5 25  1  0
  6 26  1  0
  8 27  1  0
  9 28  1  0
 10 29  1  0
 11 30  1  0
 13 31  1  0
 14 32  1  0
 14 33  1  0
 18 34  1  0
 19 35  1  0
 20 36  1  0
 21 37  1  0
 22 38  1  0
M  END
>  <Energy>  (937) 
392.34405153656542

>  <compound_id>  (937) 
52474

>  <target_id>  (937) 
1

>  <reference_id>  (937) 
40

>  <inspiration_ids>  (937) 
[40, 76]

>  <energy_score>  (937) 
348.03863673282035

>  <distance_score>  (937) 
5.394244465949416

>  <path>  (937) 
/opt/xchem-fragalysis-2/maxwin/BulkDock/SCRATCH/511024/C52474-P40/C52474-P40.minimised.mol

>  <scratch_subdir>  (937) 
/opt/xchem-fragalysis-2/maxwin/BulkDock/SCRATCH/511024/C52474-P40

>  <fragmenstein_runtime>  (937) 
13.392148494720459

>  <fragmenstein_outcome>  (937) 
too moved

>  <fragmenstein_mode>  (937) 
expansion

>  <fragmenstein_error>  (937) 


$$$$
C52474-P76
     RDKit          3D

 38 40  0  0  0  0  0  0  0  0999 V2000
    5.9367   -6.6527   22.8915 O   0  0  0  0  0  0  0  0  0  0  0  0
    4.7814   -6.2508   22.7707 C   0  0  0  0  0  0  0  0  0  0  0  0
    3.3346   -6.7008   24.2312 C   0  0  0  0  0  0  0  0  0  0  0  0
    2.2541   -5.2391   25.1679 C   0  0  0  0  0  0  0  0  0  0  0  0
    2.7561   -3.5645   25.2098 C   0  0  0  0  0  0  0  0  0  0  0  0
    2.3538   -2.9645   26.4746 N   0  0  0  0  0  0  0  0  0  0  0  0
    1.4337   -3.7049   27.2475 C   0  0  0  0  0  0  0  0  0  0  0  0
    0.8088   -3.3351   28.4483 C   0  0  0  0  0  0  0  0  0  0  0  0
   -0.1431   -4.1968   29.0080 C   0  0  0  0  0  0  0  0  0  0  0  0
   -0.5473   -5.3624   28.3566 C   0  0  0  0  0  0  0  0  0  0  0  0
   -0.0038   -5.7254   27.1260 C   0  0  0  0  0  0  0  0  0  0  0  0
    1.1281   -4.9615   26.6154 C   0  0  0  0  0  0  0  0  0  0  0  0
    3.8436   -4.8794   21.2622 N   0  0  0  0  0  0  0  0  0  0  0  0
    4.9073   -3.8661   19.8141 C   0  0  0  0  0  0  0  0  0  0  0  0
    4.9162   -2.2777   18.4801 C   0  0  0  0  0  0  0  0  0  0  0  0
    5.5693   -1.2860   17.7058 C   0  0  0  0  0  0  0  0  0  0  0  0
    6.8114   -0.6228   16.4186 C   0  0  0  0  0  0  0  0  0  0  0  0
    7.0339    0.6995   15.7099 C   0  0  0  0  0  0  0  0  0  0  0  0
    7.8718    1.0350   14.6210 C   0  0  0  0  0  0  0  0  0  0  0  0
    8.7107    0.0706   14.1911 C   0  0  0  0  0  0  0  0  0  0  0  0
    8.5338   -1.2028   14.7315 C   0  0  0  0  0  0  0  0  0  0  0  0
    7.4850   -1.5313   15.5671 C   0  0  0  0  0  0  0  0  0  0  0  0
    3.8654   -7.3593   24.8668 H   0  0  0  0  0  0  0  0  0  0  0  0
    2.5891   -7.4483   23.9098 H   0  0  0  0  0  0  0  0  0  0  0  0
    3.4974   -3.0330   24.6261 H   0  0  0  0  0  0  0  0  0  0  0  0
    2.6313   -2.0219   26.6962 H   0  0  0  0  0  0  0  0  0  0  0  0
    1.0581   -2.3997   28.9404 H   0  0  0  0  0  0  0  0  0  0  0  0
   -0.5899   -3.9351   29.9646 H   0  0  0  0  0  0  0  0  0  0  0  0
   -1.2620   -6.0327   28.8172 H   0  0  0  0  0  0  0  0  0  0  0  0
   -0.3201   -6.6355   26.6266 H   0  0  0  0  0  0  0  0  0  0  0  0
    2.8482   -4.6918   21.5211 H   0  0  0  0  0  0  0  0  0  0  0  0
    5.4073   -3.1522   20.5031 H   0  0  0  0  0  0  0  0  0  0  0  0
    5.6144   -4.5797   19.3639 H   0  0  0  0  0  0  0  0  0  0  0  0
    6.4797    1.6279   15.8713 H   0  0  0  0  0  0  0  0  0  0  0  0
    7.9192    2.0495   14.2373 H   0  0  0  0  0  0  0  0  0  0  0  0
    9.5372    0.3158   13.5319 H   0  0  0  0  0  0  0  0  0  0  0  0
    9.2465   -2.0107   14.5748 H   0  0  0  0  0  0  0  0  0  0  0  0
    7.3243   -2.5919   15.5082 H   0  0  0  0  0  0  0  0  0  0  0  0
  1  2  2  0
  2  3  1  0
  3  4  1  0
  4  5  2  0
  5  6  1  0
  6  7  1  0
  7  8  2  0
  8  9  1  0
  9 10  2  0
 10 11  1  0
 11 12  2  0
  2 13  1  0
 13 14  1  0
 14 15  1  0
 15 16  3  0
 16 17  1  0
 17 18  2  0
 18 19  1  0
 19 20  2  0
 20 21  1  0
 21 22  2  0
 12  4  1  0
 22 17  1  0
 12  7  1  0
  3 23  1  0
  3 24  1  0
  5 25  1  0
  6 26  1  0
  8 27  1  0
  9 28  1  0
 10 29  1  0
 11 30  1  0
 13 31  1  0
 14 32  1  0
 14 33  1  0
 18 34  1  0
 19 35  1  0
 20 36  1  0
 21 37  1  0
 22 38  1  0
M  END
>  <Energy>  (938) 
987.76441103790364

>  <compound_id>  (938) 
52474

>  <target_id>  (938) 
1

>  <reference_id>  (938) 
76

>  <inspiration_ids>  (938) 
[40, 76]

>  <energy_score>  (938) 
943.4589962341611

>  <distance_score>  (938) 
4.782468340238574

>  <path>  (938) 
/opt/xchem-fragalysis-2/maxwin/BulkDock/SCRATCH/511024/C52474-P76/C52474-P76.minimised.mol

>  <scratch_subdir>  (938) 
/opt/xchem-fragalysis-2/maxwin/BulkDock/SCRATCH/511024/C52474-P76

>  <fragmenstein_runtime>  (938) 
7.259728908538818

>  <fragmenstein_outcome>  (938) 
too moved

>  <fragmenstein_mode>  (938) 
expansion

>  <fragmenstein_error>  (938) 


$$$$
C52475-P40
     RDKit          3D

 41 43  0  0  0  0  0  0  0  0999 V2000
    5.5414   -3.5780   24.7554 C   0  0  0  0  0  0  0  0  0  0  0  0
    5.1037   -2.1481   24.3098 C   0  0  0  0  0  0  0  0  0  0  0  0
    4.6609   -1.6673   25.5177 N   0  0  0  0  0  0  0  0  0  0  0  0
    4.3993   -0.3723   25.6066 C   0  0  0  0  0  0  0  0  0  0  0  0
    3.9724    0.3018   26.7679 C   0  0  0  0  0  0  0  0  0  0  0  0
    3.6311    1.6351   26.6732 C   0  0  0  0  0  0  0  0  0  0  0  0
    3.7107    2.2471   25.4430 C   0  0  0  0  0  0  0  0  0  0  0  0
    4.1526    1.5266   24.3139 C   0  0  0  0  0  0  0  0  0  0  0  0
    4.5823    0.1342   24.3299 C   0  0  0  0  0  0  0  0  0  0  0  0
    4.9914   -1.1129   23.1562 C   0  0  0  0  0  0  0  0  0  0  0  0
    5.5262   -1.0481   21.1944 C   0  0  0  0  0  0  0  0  0  0  0  0
    6.8401   -0.1152   19.8996 C   0  0  0  0  0  0  0  0  0  0  0  0
    8.3986   -0.3944   19.9304 O   0  0  0  0  0  0  0  0  0  0  0  0
    6.7521    0.5440   19.0268 N   0  0  0  0  0  0  0  0  0  0  0  0
    7.5962    1.3257   17.9440 C   0  0  0  0  0  0  0  0  0  0  0  0
    8.3550    0.5994   16.8941 C   0  0  0  0  0  0  0  0  0  0  0  0
    9.1679    0.1878   16.0985 C   0  0  0  0  0  0  0  0  0  0  0  0
   10.3316   -0.2120   15.3390 C   0  0  0  0  0  0  0  0  0  0  0  0
   11.3118    0.7336   15.0194 C   0  0  0  0  0  0  0  0  0  0  0  0
   12.5422    0.3325   14.4836 C   0  0  0  0  0  0  0  0  0  0  0  0
   12.8000   -1.0180   14.2553 C   0  0  0  0  0  0  0  0  0  0  0  0
   11.8127   -1.9610   14.5210 C   0  0  0  0  0  0  0  0  0  0  0  0
   10.5801   -1.5520   15.0404 C   0  0  0  0  0  0  0  0  0  0  0  0
    4.6566   -4.1289   25.1159 H   0  0  0  0  0  0  0  0  0  0  0  0
    6.1777   -3.5258   25.6531 H   0  0  0  0  0  0  0  0  0  0  0  0
    6.0330   -4.2204   24.0289 H   0  0  0  0  0  0  0  0  0  0  0  0
    4.6171   -2.2394   26.3462 H   0  0  0  0  0  0  0  0  0  0  0  0
    3.8799   -0.2201   27.7154 H   0  0  0  0  0  0  0  0  0  0  0  0
    3.2817    2.1812   27.5431 H   0  0  0  0  0  0  0  0  0  0  0  0
    3.4062    3.2832   25.3249 H   0  0  0  0  0  0  0  0  0  0  0  0
    4.0914    2.0490   23.3647 H   0  0  0  0  0  0  0  0  0  0  0  0
    5.3529   -2.1855   21.0249 H   0  0  0  0  0  0  0  0  0  0  0  0
    6.2833   -1.7977   20.7553 H   0  0  0  0  0  0  0  0  0  0  0  0
    6.2618    1.0543   18.3432 H   0  0  0  0  0  0  0  0  0  0  0  0
    8.3494    1.8383   18.5609 H   0  0  0  0  0  0  0  0  0  0  0  0
    7.0342    2.1574   17.4671 H   0  0  0  0  0  0  0  0  0  0  0  0
   11.1416    1.7873   15.2279 H   0  0  0  0  0  0  0  0  0  0  0  0
   13.3043    1.0748   14.2630 H   0  0  0  0  0  0  0  0  0  0  0  0
   13.7576   -1.3320   13.8495 H   0  0  0  0  0  0  0  0  0  0  0  0
   11.9877   -3.0129   14.3102 H   0  0  0  0  0  0  0  0  0  0  0  0
    9.8040   -2.2950   15.1604 H   0  0  0  0  0  0  0  0  0  0  0  0
  1  2  1  0
  2  3  1  0
  3  4  1  0
  4  5  2  0
  5  6  1  0
  6  7  2  0
  7  8  1  0
  8  9  2  0
  9 10  1  0
 10 11  1  0
 11 12  1  0
 12 13  2  0
 12 14  1  0
 14 15  1  0
 15 16  1  0
 16 17  3  0
 17 18  1  0
 18 19  2  0
 19 20  1  0
 20 21  2  0
 21 22  1  0
 22 23  2  0
 10  2  2  0
 23 18  1  0
  9  4  1  0
  1 24  1  0
  1 25  1  0
  1 26  1  0
  3 27  1  0
  5 28  1  0
  6 29  1  0
  7 30  1  0
  8 31  1  0
 11 32  1  0
 11 33  1  0
 14 34  1  0
 15 35  1  0
 15 36  1  0
 19 37  1  0
 20 38  1  0
 21 39  1  0
 22 40  1  0
 23 41  1  0
M  END
>  <Energy>  (939) 
559.0594521122473

>  <compound_id>  (939) 
52475

>  <target_id>  (939) 
1

>  <reference_id>  (939) 
40

>  <inspiration_ids>  (939) 
[40, 76]

>  <energy_score>  (939) 
503.46594501296136

>  <distance_score>  (939) 
6.991473120809078

>  <path>  (939) 
/opt/xchem-fragalysis-2/maxwin/BulkDock/SCRATCH/511024/C52475-P40/C52475-P40.minimised.mol

>  <scratch_subdir>  (939) 
/opt/xchem-fragalysis-2/maxwin/BulkDock/SCRATCH/511024/C52475-P40

>  <fragmenstein_runtime>  (939) 
7.777749061584473

>  <fragmenstein_outcome>  (939) 
too moved

>  <fragmenstein_mode>  (939) 
expansion

>  <fragmenstein_error>  (939) 


$$$$
C52475-P76
     RDKit          3D

 41 43  0  0  0  0  0  0  0  0999 V2000
    1.3784    0.0079   27.3788 C   0  0  0  0  0  0  0  0  0  0  0  0
    2.3077   -1.1244   27.5902 C   0  0  0  0  0  0  0  0  0  0  0  0
    2.0748   -1.9559   28.6490 N   0  0  0  0  0  0  0  0  0  0  0  0
    3.2619   -2.4874   29.0532 C   0  0  0  0  0  0  0  0  0  0  0  0
    3.5552   -3.1809   30.2352 C   0  0  0  0  0  0  0  0  0  0  0  0
    4.8825   -3.5228   30.4653 C   0  0  0  0  0  0  0  0  0  0  0  0
    5.8637   -3.1608   29.5505 C   0  0  0  0  0  0  0  0  0  0  0  0
    5.5360   -2.4769   28.3660 C   0  0  0  0  0  0  0  0  0  0  0  0
    4.1968   -2.1618   28.0577 C   0  0  0  0  0  0  0  0  0  0  0  0
    3.4838   -1.5493   26.9487 C   0  0  0  0  0  0  0  0  0  0  0  0
    3.8154   -1.1618   25.4752 C   0  0  0  0  0  0  0  0  0  0  0  0
    5.0401   -1.6278   24.5865 C   0  0  0  0  0  0  0  0  0  0  0  0
    6.0935   -1.8475   25.1219 O   0  0  0  0  0  0  0  0  0  0  0  0
    4.6692   -1.6216   23.1247 N   0  0  0  0  0  0  0  0  0  0  0  0
    5.6498   -1.8633   21.6771 C   0  0  0  0  0  0  0  0  0  0  0  0
    6.8066   -0.9023   20.4568 C   0  0  0  0  0  0  0  0  0  0  0  0
    6.9349   -0.5785   19.2151 C   0  0  0  0  0  0  0  0  0  0  0  0
    6.1498   -0.7798   17.5907 C   0  0  0  0  0  0  0  0  0  0  0  0
    6.9437   -0.4290   16.4047 C   0  0  0  0  0  0  0  0  0  0  0  0
    6.5723   -0.4728   15.0548 C   0  0  0  0  0  0  0  0  0  0  0  0
    5.2567   -0.7897   14.7729 C   0  0  0  0  0  0  0  0  0  0  0  0
    4.3533   -1.0173   15.8213 C   0  0  0  0  0  0  0  0  0  0  0  0
    4.7693   -1.0257   17.1906 C   0  0  0  0  0  0  0  0  0  0  0  0
    1.8056    0.7536   26.7048 H   0  0  0  0  0  0  0  0  0  0  0  0
    0.4040   -0.3329   27.0277 H   0  0  0  0  0  0  0  0  0  0  0  0
    1.2060    0.5284   28.3291 H   0  0  0  0  0  0  0  0  0  0  0  0
    1.2425   -1.9421   29.2198 H   0  0  0  0  0  0  0  0  0  0  0  0
    2.7844   -3.4130   30.9628 H   0  0  0  0  0  0  0  0  0  0  0  0
    5.1571   -4.0395   31.3804 H   0  0  0  0  0  0  0  0  0  0  0  0
    6.9070   -3.3942   29.7462 H   0  0  0  0  0  0  0  0  0  0  0  0
    6.3274   -2.1875   27.6781 H   0  0  0  0  0  0  0  0  0  0  0  0
    3.8490   -0.0645   25.4505 H   0  0  0  0  0  0  0  0  0  0  0  0
    2.9281   -1.4765   24.9287 H   0  0  0  0  0  0  0  0  0  0  0  0
    3.7170   -1.3139   23.0274 H   0  0  0  0  0  0  0  0  0  0  0  0
    6.0318   -2.7751   22.1205 H   0  0  0  0  0  0  0  0  0  0  0  0
    5.2344   -2.5690   20.9411 H   0  0  0  0  0  0  0  0  0  0  0  0
    7.6668    0.2849   16.7314 H   0  0  0  0  0  0  0  0  0  0  0  0
    7.2435   -0.1450   14.2669 H   0  0  0  0  0  0  0  0  0  0  0  0
    4.9060   -0.8014   13.7440 H   0  0  0  0  0  0  0  0  0  0  0  0
    3.3132   -1.2369   15.5888 H   0  0  0  0  0  0  0  0  0  0  0  0
    3.9900   -1.3211   17.8651 H   0  0  0  0  0  0  0  0  0  0  0  0
  1  2  1  0
  2  3  1  0
  3  4  1  0
  4  5  2  0
  5  6  1  0
  6  7  2  0
  7  8  1  0
  8  9  2  0
  9 10  1  0
 10 11  1  0
 11 12  1  0
 12 13  2  0
 12 14  1  0
 14 15  1  0
 15 16  1  0
 16 17  3  0
 17 18  1  0
 18 19  2  0
 19 20  1  0
 20 21  2  0
 21 22  1  0
 22 23  2  0
 10  2  2  0
 23 18  1  0
  9  4  1  0
  1 24  1  0
  1 25  1  0
  1 26  1  0
  3 27  1  0
  5 28  1  0
  6 29  1  0
  7 30  1  0
  8 31  1  0
 11 32  1  0
 11 33  1  0
 14 34  1  0
 15 35  1  0
 15 36  1  0
 19 37  1  0
 20 38  1  0
 21 39  1  0
 22 40  1  0
 23 41  1  0
M  END
>  <Energy>  (940) 
275.65025755737582

>  <compound_id>  (940) 
52475

>  <target_id>  (940) 
1

>  <reference_id>  (940) 
76

>  <inspiration_ids>  (940) 
[40, 76]

>  <energy_score>  (940) 
220.05675045808943

>  <distance_score>  (940) 
6.766545492967777

>  <path>  (940) 
/opt/xchem-fragalysis-2/maxwin/BulkDock/SCRATCH/511024/C52475-P76/C52475-P76.minimised.mol

>  <scratch_subdir>  (940) 
/opt/xchem-fragalysis-2/maxwin/BulkDock/SCRATCH/511024/C52475-P76

>  <fragmenstein_runtime>  (940) 
8.138622522354126

>  <fragmenstein_outcome>  (940) 
too moved

>  <fragmenstein_mode>  (940) 
expansion

>  <fragmenstein_error>  (940) 


$$$$
C52476-P40
     RDKit          3D

 38 40  0  0  0  0  0  0  0  0999 V2000
    4.5505   -1.2004   24.1398 O   0  0  0  0  0  0  0  0  0  0  0  0
    5.2086   -2.2067   24.0668 C   0  0  0  0  0  0  0  0  0  0  0  0
    5.4473   -3.0634   25.3879 C   0  0  0  0  0  0  0  0  0  0  0  0
    4.3256   -3.8546   26.0621 C   0  0  0  0  0  0  0  0  0  0  0  0
    4.1838   -5.2240   25.8833 C   0  0  0  0  0  0  0  0  0  0  0  0
    3.2383   -5.7034   26.7329 N   0  0  0  0  0  0  0  0  0  0  0  0
    2.7500   -4.6918   27.5176 C   0  0  0  0  0  0  0  0  0  0  0  0
    1.7930   -4.7503   28.5451 C   0  0  0  0  0  0  0  0  0  0  0  0
    1.4745   -3.5740   29.2226 C   0  0  0  0  0  0  0  0  0  0  0  0
    2.1104   -2.3841   28.8961 C   0  0  0  0  0  0  0  0  0  0  0  0
    3.0715   -2.3550   27.8784 C   0  0  0  0  0  0  0  0  0  0  0  0
    3.8728   -0.8973   27.4893 Cl  0  0  0  0  0  0  0  0  0  0  0  0
    3.4136   -3.5093   27.1374 C   0  0  0  0  0  0  0  0  0  0  0  0
    5.9286   -2.8752   22.8162 N   0  0  0  0  0  0  0  0  0  0  0  0
    5.9309   -2.3884   20.9763 C   0  0  0  0  0  0  0  0  0  0  0  0
    6.9238   -0.8824   20.2645 C   0  0  0  0  0  0  0  0  0  0  0  0
    7.4789   -0.0682   19.4851 C   0  0  0  0  0  0  0  0  0  0  0  0
    8.1142    0.9029   18.5394 C   0  0  0  0  0  0  0  0  0  0  0  0
    8.4831    0.6335   17.1934 C   0  0  0  0  0  0  0  0  0  0  0  0
    9.0957    1.5792   16.3625 C   0  0  0  0  0  0  0  0  0  0  0  0
    9.3099    2.8580   16.8344 C   0  0  0  0  0  0  0  0  0  0  0  0
    8.9218    3.1769   18.1303 C   0  0  0  0  0  0  0  0  0  0  0  0
    8.3383    2.2111   18.9627 C   0  0  0  0  0  0  0  0  0  0  0  0
    5.9328   -2.4040   26.1157 H   0  0  0  0  0  0  0  0  0  0  0  0
    6.1539   -3.8648   25.1884 H   0  0  0  0  0  0  0  0  0  0  0  0
    4.7273   -5.9030   25.2354 H   0  0  0  0  0  0  0  0  0  0  0  0
    2.9914   -6.6782   26.8124 H   0  0  0  0  0  0  0  0  0  0  0  0
    1.3083   -5.6819   28.8137 H   0  0  0  0  0  0  0  0  0  0  0  0
    0.7267   -3.5823   30.0118 H   0  0  0  0  0  0  0  0  0  0  0  0
    1.8595   -1.4701   29.4284 H   0  0  0  0  0  0  0  0  0  0  0  0
    6.4707   -3.6815   23.1268 H   0  0  0  0  0  0  0  0  0  0  0  0
    5.3305   -2.9570   20.2769 H   0  0  0  0  0  0  0  0  0  0  0  0
    6.8570   -2.9872   21.0944 H   0  0  0  0  0  0  0  0  0  0  0  0
    8.2472   -0.2792   16.6672 H   0  0  0  0  0  0  0  0  0  0  0  0
    9.3473    1.3246   15.3361 H   0  0  0  0  0  0  0  0  0  0  0  0
    9.7677    3.6130   16.2030 H   0  0  0  0  0  0  0  0  0  0  0  0
    9.0836    4.1835   18.5078 H   0  0  0  0  0  0  0  0  0  0  0  0
    8.0286    2.5194   19.9468 H   0  0  0  0  0  0  0  0  0  0  0  0
  1  2  2  0
  2  3  1  0
  3  4  1  0
  4  5  2  0
  5  6  1  0
  6  7  1  0
  7  8  2  0
  8  9  1  0
  9 10  2  0
 10 11  1  0
 11 12  1  0
 11 13  2  0
  2 14  1  0
 14 15  1  0
 15 16  1  0
 16 17  3  0
 17 18  1  0
 18 19  2  0
 19 20  1  0
 20 21  2  0
 21 22  1  0
 22 23  2  0
 13  4  1  0
 23 18  1  0
 13  7  1  0
  3 24  1  0
  3 25  1  0
  5 26  1  0
  6 27  1  0
  8 28  1  0
  9 29  1  0
 10 30  1  0
 14 31  1  0
 15 32  1  0
 15 33  1  0
 19 34  1  0
 20 35  1  0
 21 36  1  0
 22 37  1  0
 23 38  1  0
M  END
>  <Energy>  (941) 
195.05627861432478

>  <compound_id>  (941) 
52476

>  <target_id>  (941) 
1

>  <reference_id>  (941) 
40

>  <inspiration_ids>  (941) 
[40, 76]

>  <energy_score>  (941) 
151.69566016293322

>  <distance_score>  (941) 
5.543626566988368

>  <path>  (941) 
/opt/xchem-fragalysis-2/maxwin/BulkDock/SCRATCH/511024/C52476-P40/C52476-P40.minimised.mol

>  <scratch_subdir>  (941) 
/opt/xchem-fragalysis-2/maxwin/BulkDock/SCRATCH/511024/C52476-P40

>  <fragmenstein_runtime>  (941) 
9.263668060302734

>  <fragmenstein_outcome>  (941) 
too moved

>  <fragmenstein_mode>  (941) 
expansion

>  <fragmenstein_error>  (941) 


$$$$
C52476-P76
     RDKit          3D

 38 40  0  0  0  0  0  0  0  0999 V2000
    8.2035   -4.0802   20.6270 O   0  0  0  0  0  0  0  0  0  0  0  0
    7.4997   -3.2499   21.1825 C   0  0  0  0  0  0  0  0  0  0  0  0
    6.7011   -3.5126   23.0115 C   0  0  0  0  0  0  0  0  0  0  0  0
    5.7067   -2.2776   24.1687 C   0  0  0  0  0  0  0  0  0  0  0  0
    4.3153   -2.0303   24.1442 C   0  0  0  0  0  0  0  0  0  0  0  0
    3.8039   -1.4174   25.2533 N   0  0  0  0  0  0  0  0  0  0  0  0
    4.7427   -1.1877   26.2057 C   0  0  0  0  0  0  0  0  0  0  0  0
    4.5282   -0.7258   27.5153 C   0  0  0  0  0  0  0  0  0  0  0  0
    5.6114   -0.6580   28.3788 C   0  0  0  0  0  0  0  0  0  0  0  0
    6.8742   -1.0046   27.9242 C   0  0  0  0  0  0  0  0  0  0  0  0
    7.0744   -1.4466   26.6022 C   0  0  0  0  0  0  0  0  0  0  0  0
    8.6637   -1.8128   26.1163 Cl  0  0  0  0  0  0  0  0  0  0  0  0
    5.9956   -1.5873   25.6729 C   0  0  0  0  0  0  0  0  0  0  0  0
    7.0942   -1.4527   20.5858 N   0  0  0  0  0  0  0  0  0  0  0  0
    7.6765   -0.5573   19.2900 C   0  0  0  0  0  0  0  0  0  0  0  0
    7.4371   -0.1494   17.8341 C   0  0  0  0  0  0  0  0  0  0  0  0
    7.3012   -0.0012   16.6113 C   0  0  0  0  0  0  0  0  0  0  0  0
    7.3437    0.6744   15.2891 C   0  0  0  0  0  0  0  0  0  0  0  0
    8.1325    0.0767   14.3237 C   0  0  0  0  0  0  0  0  0  0  0  0
    8.9850    0.8902   13.5678 C   0  0  0  0  0  0  0  0  0  0  0  0
    8.8549    2.2696   13.5341 C   0  0  0  0  0  0  0  0  0  0  0  0
    7.9066    2.8635   14.3388 C   0  0  0  0  0  0  0  0  0  0  0  0
    7.1877    2.0741   15.2376 C   0  0  0  0  0  0  0  0  0  0  0  0
    6.6192   -4.5839   23.2772 H   0  0  0  0  0  0  0  0  0  0  0  0
    7.5159   -3.6391   23.7086 H   0  0  0  0  0  0  0  0  0  0  0  0
    3.5381   -2.3479   23.4768 H   0  0  0  0  0  0  0  0  0  0  0  0
    2.8126   -1.2684   25.3721 H   0  0  0  0  0  0  0  0  0  0  0  0
    3.5313   -0.4638   27.8560 H   0  0  0  0  0  0  0  0  0  0  0  0
    5.4723   -0.3225   29.4022 H   0  0  0  0  0  0  0  0  0  0  0  0
    7.7228   -0.9306   28.5992 H   0  0  0  0  0  0  0  0  0  0  0  0
    6.4077   -1.0150   21.2044 H   0  0  0  0  0  0  0  0  0  0  0  0
    7.3628    0.4058   19.7166 H   0  0  0  0  0  0  0  0  0  0  0  0
    8.7350   -0.4494   19.4856 H   0  0  0  0  0  0  0  0  0  0  0  0
    8.3111   -0.9930   14.3833 H   0  0  0  0  0  0  0  0  0  0  0  0
    9.8513    0.4556   13.0763 H   0  0  0  0  0  0  0  0  0  0  0  0
    9.5239    2.8711   12.9260 H   0  0  0  0  0  0  0  0  0  0  0  0
    7.7983    3.9442   14.3539 H   0  0  0  0  0  0  0  0  0  0  0  0
    6.6019    2.6038   15.9830 H   0  0  0  0  0  0  0  0  0  0  0  0
  1  2  2  0
  2  3  1  0
  3  4  1  0
  4  5  2  0
  5  6  1  0
  6  7  1  0
  7  8  2  0
  8  9  1  0
  9 10  2  0
 10 11  1  0
 11 12  1  0
 11 13  2  0
  2 14  1  0
 14 15  1  0
 15 16  1  0
 16 17  3  0
 17 18  1  0
 18 19  2  0
 19 20  1  0
 20 21  2  0
 21 22  1  0
 22 23  2  0
 13  4  1  0
 23 18  1  0
 13  7  1  0
  3 24  1  0
  3 25  1  0
  5 26  1  0
  6 27  1  0
  8 28  1  0
  9 29  1  0
 10 30  1  0
 14 31  1  0
 15 32  1  0
 15 33  1  0
 19 34  1  0
 20 35  1  0
 21 36  1  0
 22 37  1  0
 23 38  1  0
M  END
>  <Energy>  (942) 
348.75948625566326

>  <compound_id>  (942) 
52476

>  <target_id>  (942) 
1

>  <reference_id>  (942) 
76

>  <inspiration_ids>  (942) 
[40, 76]

>  <energy_score>  (942) 
305.39886780426843

>  <distance_score>  (942) 
7.35393498445237

>  <path>  (942) 
/opt/xchem-fragalysis-2/maxwin/BulkDock/SCRATCH/511024/C52476-P76/C52476-P76.minimised.mol

>  <scratch_subdir>  (942) 
/opt/xchem-fragalysis-2/maxwin/BulkDock/SCRATCH/511024/C52476-P76

>  <fragmenstein_runtime>  (942) 
8.479575872421265

>  <fragmenstein_outcome>  (942) 
too moved

>  <fragmenstein_mode>  (942) 
expansion

>  <fragmenstein_error>  (942) 


$$$$
C47373-P123
     RDKit          3D

 31 32  0  0  0  0  0  0  0  0999 V2000
  -10.3461  -23.4122   28.0550 C   0  0  0  0  0  0  0  0  0  0  0  0
  -10.4633  -21.8980   28.2245 C   0  0  0  0  0  0  0  0  0  0  0  0
   -9.3183  -20.8774   27.6619 O   0  0  0  0  0  0  0  0  0  0  0  0
   -7.7249  -21.1232   27.3953 C   0  0  0  0  0  0  0  0  0  0  0  0
   -7.4505  -22.3416   27.5569 O   0  0  0  0  0  0  0  0  0  0  0  0
   -6.2293  -19.7063   26.6839 C   0  0  0  0  0  0  0  0  0  0  0  0
   -4.9133  -20.1577   25.7723 C   0  0  0  0  0  0  0  0  0  0  0  0
   -3.0303  -19.8061   25.7255 C   0  0  0  0  0  0  0  0  0  0  0  0
   -2.0281  -19.9619   26.7533 C   0  0  0  0  0  0  0  0  0  0  0  0
   -0.7815  -19.0547   26.9043 C   0  0  0  0  0  0  0  0  0  0  0  0
   -1.4944  -18.0226   26.5299 N   0  0  0  0  0  0  0  0  0  0  0  0
   -2.2966  -18.3683   25.5592 N   0  0  0  0  0  0  0  0  0  0  0  0
   -6.1363  -20.1285   27.2029 C   0  0  0  0  0  0  0  0  0  0  0  0
   -7.8758  -18.8576   27.7846 C   0  0  0  0  0  0  0  0  0  0  0  0
   -7.1074  -17.2433   28.1798 N   0  0  0  0  0  0  0  0  0  0  0  0
   -5.3784  -18.1267   27.4857 C   0  0  0  0  0  0  0  0  0  0  0  0
  -11.1489  -23.9021   28.6166 H   0  0  0  0  0  0  0  0  0  0  0  0
   -9.4024  -23.8035   28.4118 H   0  0  0  0  0  0  0  0  0  0  0  0
  -10.4612  -23.7267   27.0142 H   0  0  0  0  0  0  0  0  0  0  0  0
  -11.3595  -21.6331   27.6522 H   0  0  0  0  0  0  0  0  0  0  0  0
  -10.6572  -21.5830   29.2541 H   0  0  0  0  0  0  0  0  0  0  0  0
   -2.7952  -19.3691   27.1864 H   0  0  0  0  0  0  0  0  0  0  0  0
    0.0663  -19.1209   27.5740 H   0  0  0  0  0  0  0  0  0  0  0  0
   -1.6908  -17.1726   27.0350 H   0  0  0  0  0  0  0  0  0  0  0  0
   -5.7643  -21.3978   27.7987 H   0  0  0  0  0  0  0  0  0  0  0  0
   -5.8435  -21.5979   27.0725 H   0  0  0  0  0  0  0  0  0  0  0  0
   -8.2619  -19.1266   28.7102 H   0  0  0  0  0  0  0  0  0  0  0  0
   -8.7889  -18.2877   27.4301 H   0  0  0  0  0  0  0  0  0  0  0  0
   -7.6230  -16.4534   27.7614 H   0  0  0  0  0  0  0  0  0  0  0  0
   -5.3811  -17.6953   28.8154 H   0  0  0  0  0  0  0  0  0  0  0  0
   -4.3881  -17.5291   27.3776 H   0  0  0  0  0  0  0  0  0  0  0  0
  1  2  1  0
  2  3  1  0
  3  4  1  0
  4  5  2  0
  4  6  1  0
  6  7  2  0
  7  8  1  0
  8  9  1  0
  9 10  2  0
 10 11  1  0
 11 12  1  0
  7 13  1  0
 13 14  1  0
 14 15  1  0
 15 16  1  0
 16  6  1  0
 12  8  2  0
  1 17  1  0
  1 18  1  0
  1 19  1  0
  2 20  1  0
  2 21  1  0
  9 22  1  0
 10 23  1  0
 11 24  1  0
 13 25  1  0
 13 26  1  0
 14 27  1  0
 14 28  1  0
 15 29  1  0
 16 30  1  0
 16 31  1  0
M  END
>  <Energy>  (943) 
1610.0283794074642

>  <compound_id>  (943) 
47373

>  <target_id>  (943) 
1

>  <reference_id>  (943) 
123

>  <inspiration_ids>  (943) 
[123, 81]

>  <energy_score>  (943) 
1578.0351205935797

>  <distance_score>  (943) 
16.278159451301388

>  <path>  (943) 
/opt/xchem-fragalysis-2/maxwin/BulkDock/SCRATCH/511024/C47373-P123/C47373-P123.minimised.mol

>  <scratch_subdir>  (943) 
/opt/xchem-fragalysis-2/maxwin/BulkDock/SCRATCH/511024/C47373-P123

>  <fragmenstein_runtime>  (943) 
10.052480697631836

>  <fragmenstein_outcome>  (943) 
too moved

>  <fragmenstein_mode>  (943) 
expansion

>  <fragmenstein_error>  (943) 


$$$$
C47373-P81
     RDKit          3D

 31 32  0  0  0  0  0  0  0  0999 V2000
   -6.5502  -22.8547   26.7122 C   0  0  0  0  0  0  0  0  0  0  0  0
   -5.2738  -22.5494   25.8607 C   0  0  0  0  0  0  0  0  0  0  0  0
   -4.8169  -21.0045   25.0690 O   0  0  0  0  0  0  0  0  0  0  0  0
   -5.5213  -19.7087   25.3673 C   0  0  0  0  0  0  0  0  0  0  0  0
   -5.6399  -19.4907   26.5501 O   0  0  0  0  0  0  0  0  0  0  0  0
   -6.2383  -18.6999   23.8036 C   0  0  0  0  0  0  0  0  0  0  0  0
   -6.2493  -17.3104   23.3397 C   0  0  0  0  0  0  0  0  0  0  0  0
   -5.1948  -15.5944   23.8973 C   0  0  0  0  0  0  0  0  0  0  0  0
   -3.8595  -15.0785   23.5191 C   0  0  0  0  0  0  0  0  0  0  0  0
   -2.5757  -15.2388   24.2523 C   0  0  0  0  0  0  0  0  0  0  0  0
   -3.0385  -16.1291   24.9882 N   0  0  0  0  0  0  0  0  0  0  0  0
   -4.3003  -15.7550   24.8971 N   0  0  0  0  0  0  0  0  0  0  0  0
   -6.5295  -17.6403   21.4985 C   0  0  0  0  0  0  0  0  0  0  0  0
   -6.8788  -19.0566   20.9190 C   0  0  0  0  0  0  0  0  0  0  0  0
   -7.4366  -19.9402   21.9177 N   0  0  0  0  0  0  0  0  0  0  0  0
   -7.5846  -19.0818   23.0546 C   0  0  0  0  0  0  0  0  0  0  0  0
   -7.2818  -23.4297   26.1562 H   0  0  0  0  0  0  0  0  0  0  0  0
   -7.1368  -22.1086   27.2473 H   0  0  0  0  0  0  0  0  0  0  0  0
   -6.1377  -23.4043   27.5153 H   0  0  0  0  0  0  0  0  0  0  0  0
   -4.5357  -22.7973   26.6357 H   0  0  0  0  0  0  0  0  0  0  0  0
   -5.1767  -23.2432   25.0133 H   0  0  0  0  0  0  0  0  0  0  0  0
   -4.2234  -14.0935   23.5293 H   0  0  0  0  0  0  0  0  0  0  0  0
   -1.5330  -14.9824   24.1595 H   0  0  0  0  0  0  0  0  0  0  0  0
   -2.7563  -16.8677   25.6505 H   0  0  0  0  0  0  0  0  0  0  0  0
   -5.7078  -17.2524   20.8846 H   0  0  0  0  0  0  0  0  0  0  0  0
   -7.4272  -17.0424   21.2363 H   0  0  0  0  0  0  0  0  0  0  0  0
   -6.0261  -19.5142   20.4100 H   0  0  0  0  0  0  0  0  0  0  0  0
   -7.6182  -18.9099   20.1196 H   0  0  0  0  0  0  0  0  0  0  0  0
   -8.3246  -20.3243   21.6029 H   0  0  0  0  0  0  0  0  0  0  0  0
   -8.1016  -18.1679   22.6955 H   0  0  0  0  0  0  0  0  0  0  0  0
   -8.5252  -19.1385   23.5506 H   0  0  0  0  0  0  0  0  0  0  0  0
  1  2  1  0
  2  3  1  0
  3  4  1  0
  4  5  2  0
  4  6  1  0
  6  7  2  0
  7  8  1  0
  8  9  1  0
  9 10  2  0
 10 11  1  0
 11 12  1  0
  7 13  1  0
 13 14  1  0
 14 15  1  0
 15 16  1  0
 16  6  1  0
 12  8  2  0
  1 17  1  0
  1 18  1  0
  1 19  1  0
  2 20  1  0
  2 21  1  0
  9 22  1  0
 10 23  1  0
 11 24  1  0
 13 25  1  0
 13 26  1  0
 14 27  1  0
 14 28  1  0
 15 29  1  0
 16 30  1  0
 16 31  1  0
M  END
>  <Energy>  (944) 
609.77106007359509

>  <compound_id>  (944) 
47373

>  <target_id>  (944) 
1

>  <reference_id>  (944) 
81

>  <inspiration_ids>  (944) 
[123, 81]

>  <energy_score>  (944) 
577.7778012597155

>  <distance_score>  (944) 
16.295939599363443

>  <path>  (944) 
/opt/xchem-fragalysis-2/maxwin/BulkDock/SCRATCH/511024/C47373-P81/C47373-P81.minimised.mol

>  <scratch_subdir>  (944) 
/opt/xchem-fragalysis-2/maxwin/BulkDock/SCRATCH/511024/C47373-P81

>  <fragmenstein_runtime>  (944) 
16.51054573059082

>  <fragmenstein_outcome>  (944) 
too moved

>  <fragmenstein_mode>  (944) 
expansion

>  <fragmenstein_error>  (944) 


$$$$
C28267-P123
     RDKit          3D

 49 50  0  0  0  0  0  0  0  0999 V2000
  -11.1910  -21.7333   29.3686 C   0  0  0  0  0  0  0  0  0  0  0  0
  -10.2726  -22.0285   28.1892 C   0  0  0  0  0  0  0  0  0  0  0  0
   -9.2531  -20.8024   27.6641 O   0  0  0  0  0  0  0  0  0  0  0  0
   -7.5414  -20.6812   27.5389 C   0  0  0  0  0  0  0  0  0  0  0  0
   -7.0170  -21.8120   27.7169 O   0  0  0  0  0  0  0  0  0  0  0  0
   -6.4840  -19.0185   27.0143 C   0  0  0  0  0  0  0  0  0  0  0  0
   -5.2377  -18.3307   27.7210 C   0  0  0  0  0  0  0  0  0  0  0  0
   -4.8667  -16.7483   27.2539 C   0  0  0  0  0  0  0  0  0  0  0  0
   -4.0434  -15.8760   26.1631 N   0  0  0  0  0  0  0  0  0  0  0  0
   -2.6374  -16.1822   25.2489 C   0  0  0  0  0  0  0  0  0  0  0  0
   -2.2157  -17.3100   25.3661 O   0  0  0  0  0  0  0  0  0  0  0  0
   -1.2991  -14.9661   24.1090 C   0  0  0  0  0  0  0  0  0  0  0  0
   -0.9718  -14.9030   22.4082 C   0  0  0  0  0  0  0  0  0  0  0  0
    0.6183  -14.2721   23.9828 N   0  0  0  0  0  0  0  0  0  0  0  0
    2.3096  -13.2103   23.8667 C   0  0  0  0  0  0  0  0  0  0  0  0
    3.5720  -14.1098   24.3052 C   0  0  0  0  0  0  0  0  0  0  0  0
    3.3242  -12.4658   22.4961 C   0  0  0  0  0  0  0  0  0  0  0  0
    3.6754  -13.1322   21.1699 C   0  0  0  0  0  0  0  0  0  0  0  0
    4.7307  -12.8014   20.3977 N   0  0  0  0  0  0  0  0  0  0  0  0
    5.1713  -11.7484   21.0000 N   0  0  0  0  0  0  0  0  0  0  0  0
    4.2710  -11.4322   22.2501 C   0  0  0  0  0  0  0  0  0  0  0  0
   -5.3419  -16.1935   25.3481 C   0  0  0  0  0  0  0  0  0  0  0  0
   -6.5114  -17.6181   25.7728 C   0  0  0  0  0  0  0  0  0  0  0  0
  -10.7090  -21.2005   30.1844 H   0  0  0  0  0  0  0  0  0  0  0  0
  -12.0476  -21.1312   29.0577 H   0  0  0  0  0  0  0  0  0  0  0  0
  -11.6087  -22.6688   29.7559 H   0  0  0  0  0  0  0  0  0  0  0  0
   -9.6467  -22.9220   28.2685 H   0  0  0  0  0  0  0  0  0  0  0  0
  -10.9836  -22.1839   27.3634 H   0  0  0  0  0  0  0  0  0  0  0  0
   -5.8076  -19.6099   26.3854 H   0  0  0  0  0  0  0  0  0  0  0  0
   -4.3283  -18.9326   27.5963 H   0  0  0  0  0  0  0  0  0  0  0  0
   -5.4557  -18.2944   28.7952 H   0  0  0  0  0  0  0  0  0  0  0  0
   -4.1308  -16.5685   28.0581 H   0  0  0  0  0  0  0  0  0  0  0  0
   -5.7008  -16.1079   27.6012 H   0  0  0  0  0  0  0  0  0  0  0  0
   -1.3851  -14.1535   24.8678 H   0  0  0  0  0  0  0  0  0  0  0  0
   -0.2441  -14.1397   22.2950 H   0  0  0  0  0  0  0  0  0  0  0  0
   -0.4261  -15.7710   21.8921 H   0  0  0  0  0  0  0  0  0  0  0  0
   -1.7643  -14.7454   21.6169 H   0  0  0  0  0  0  0  0  0  0  0  0
    0.4694  -13.6961   24.8240 H   0  0  0  0  0  0  0  0  0  0  0  0
    2.0722  -12.3222   24.4176 H   0  0  0  0  0  0  0  0  0  0  0  0
    3.6692  -14.2047   25.3869 H   0  0  0  0  0  0  0  0  0  0  0  0
    4.4109  -14.8182   24.1417 H   0  0  0  0  0  0  0  0  0  0  0  0
    3.2363  -14.8426   23.5405 H   0  0  0  0  0  0  0  0  0  0  0  0
    3.0406  -13.9258   20.8468 H   0  0  0  0  0  0  0  0  0  0  0  0
    5.9350  -11.1969   20.6372 H   0  0  0  0  0  0  0  0  0  0  0  0
    4.8358  -10.6751   22.7573 H   0  0  0  0  0  0  0  0  0  0  0  0
   -5.0439  -16.3814   24.3098 H   0  0  0  0  0  0  0  0  0  0  0  0
   -5.9690  -15.2922   25.3708 H   0  0  0  0  0  0  0  0  0  0  0  0
   -6.5924  -18.0803   24.7807 H   0  0  0  0  0  0  0  0  0  0  0  0
   -7.4204  -17.0521   26.0265 H   0  0  0  0  0  0  0  0  0  0  0  0
  1  2  1  0
  2  3  1  0
  3  4  1  0
  4  5  2  0
  4  6  1  0
  6  7  1  0
  7  8  1  0
  8  9  1  0
  9 10  1  0
 10 11  2  0
 10 12  1  0
 12 13  1  0
 12 14  1  0
 14 15  1  0
 15 16  1  0
 15 17  1  0
 17 18  1  0
 18 19  2  0
 19 20  1  0
 20 21  1  0
  9 22  1  0
 22 23  1  0
 23  6  1  0
 21 17  2  0
  1 24  1  0
  1 25  1  0
  1 26  1  0
  2 27  1  0
  2 28  1  0
  6 29  1  0
  7 30  1  0
  7 31  1  0
  8 32  1  0
  8 33  1  0
 12 34  1  0
 13 35  1  0
 13 36  1  0
 13 37  1  0
 14 38  1  0
 15 39  1  0
 16 40  1  0
 16 41  1  0
 16 42  1  0
 18 43  1  0
 20 44  1  0
 21 45  1  0
 22 46  1  0
 22 47  1  0
 23 48  1  0
 23 49  1  0
M  END
>  <Energy>  (945) 
1067.940039805309

>  <compound_id>  (945) 
28267

>  <target_id>  (945) 
1

>  <reference_id>  (945) 
123

>  <inspiration_ids>  (945) 
[123, 81]

>  <energy_score>  (945) 
992.8705334502814

>  <distance_score>  (945) 
11.34890012653473

>  <path>  (945) 
/opt/xchem-fragalysis-2/maxwin/BulkDock/SCRATCH/511024/C28267-P123/C28267-P123.minimised.mol

>  <scratch_subdir>  (945) 
/opt/xchem-fragalysis-2/maxwin/BulkDock/SCRATCH/511024/C28267-P123

>  <fragmenstein_runtime>  (945) 
36.416332960128784

>  <fragmenstein_outcome>  (945) 
too moved

>  <fragmenstein_mode>  (945) 
expansion

>  <fragmenstein_error>  (945) 


$$$$
C28267-P81
     RDKit          3D

 49 50  0  0  0  0  0  0  0  0999 V2000
  -10.8252  -24.0363   27.6707 C   0  0  0  0  0  0  0  0  0  0  0  0
  -11.1820  -22.6798   28.2587 C   0  0  0  0  0  0  0  0  0  0  0  0
  -10.1155  -21.7326   28.0199 O   0  0  0  0  0  0  0  0  0  0  0  0
  -10.0544  -20.6383   28.8887 C   0  0  0  0  0  0  0  0  0  0  0  0
  -10.6972  -20.7430   29.9274 O   0  0  0  0  0  0  0  0  0  0  0  0
   -8.8674  -19.0092   28.1607 C   0  0  0  0  0  0  0  0  0  0  0  0
   -7.2655  -18.8125   28.0314 C   0  0  0  0  0  0  0  0  0  0  0  0
   -6.7487  -17.6179   27.1507 C   0  0  0  0  0  0  0  0  0  0  0  0
   -6.7801  -16.1502   27.3947 N   0  0  0  0  0  0  0  0  0  0  0  0
   -6.4234  -15.0217   26.5076 C   0  0  0  0  0  0  0  0  0  0  0  0
   -6.1061  -15.0139   25.3393 O   0  0  0  0  0  0  0  0  0  0  0  0
   -6.3379  -13.5737   27.2478 C   0  0  0  0  0  0  0  0  0  0  0  0
   -5.4760  -13.7211   28.5019 C   0  0  0  0  0  0  0  0  0  0  0  0
   -5.7888  -12.5065   26.2712 N   0  0  0  0  0  0  0  0  0  0  0  0
   -5.2862  -11.2106   26.8173 C   0  0  0  0  0  0  0  0  0  0  0  0
   -6.4309  -10.4567   27.5079 C   0  0  0  0  0  0  0  0  0  0  0  0
   -4.6177  -10.2549   25.7708 C   0  0  0  0  0  0  0  0  0  0  0  0
   -3.5982   -9.2773   26.0166 C   0  0  0  0  0  0  0  0  0  0  0  0
   -3.2596   -8.5452   24.9451 N   0  0  0  0  0  0  0  0  0  0  0  0
   -4.1133   -8.9790   24.0048 N   0  0  0  0  0  0  0  0  0  0  0  0
   -4.9443   -9.9678   24.4597 C   0  0  0  0  0  0  0  0  0  0  0  0
   -8.3056  -16.4044   27.3544 C   0  0  0  0  0  0  0  0  0  0  0  0
   -8.9652  -17.3304   28.4924 C   0  0  0  0  0  0  0  0  0  0  0  0
  -11.5535  -24.7943   27.9734 H   0  0  0  0  0  0  0  0  0  0  0  0
  -10.8121  -23.9981   26.5780 H   0  0  0  0  0  0  0  0  0  0  0  0
   -9.8316  -24.3591   27.9939 H   0  0  0  0  0  0  0  0  0  0  0  0
  -11.4088  -22.8055   29.3226 H   0  0  0  0  0  0  0  0  0  0  0  0
  -12.0567  -22.2585   27.7781 H   0  0  0  0  0  0  0  0  0  0  0  0
   -9.3589  -18.5683   27.3234 H   0  0  0  0  0  0  0  0  0  0  0  0
   -6.8335  -19.6510   27.4974 H   0  0  0  0  0  0  0  0  0  0  0  0
   -6.7908  -18.6967   29.0106 H   0  0  0  0  0  0  0  0  0  0  0  0
   -6.8818  -17.7841   26.0772 H   0  0  0  0  0  0  0  0  0  0  0  0
   -5.6563  -17.7720   27.2048 H   0  0  0  0  0  0  0  0  0  0  0  0
   -7.3624  -13.2898   27.5106 H   0  0  0  0  0  0  0  0  0  0  0  0
   -5.4323  -12.7962   29.0835 H   0  0  0  0  0  0  0  0  0  0  0  0
   -4.4540  -14.0188   28.2442 H   0  0  0  0  0  0  0  0  0  0  0  0
   -5.8791  -14.4884   29.1711 H   0  0  0  0  0  0  0  0  0  0  0  0
   -5.0598  -12.9501   25.7081 H   0  0  0  0  0  0  0  0  0  0  0  0
   -4.4998  -11.4227   27.5512 H   0  0  0  0  0  0  0  0  0  0  0  0
   -6.8629  -11.0309   28.3331 H   0  0  0  0  0  0  0  0  0  0  0  0
   -7.2357  -10.2231   26.8010 H   0  0  0  0  0  0  0  0  0  0  0  0
   -6.0766   -9.5073   27.9257 H   0  0  0  0  0  0  0  0  0  0  0  0
   -3.0952   -9.0830   26.9563 H   0  0  0  0  0  0  0  0  0  0  0  0
   -4.1000   -8.5509   23.0839 H   0  0  0  0  0  0  0  0  0  0  0  0
   -5.7168  -10.3755   23.8217 H   0  0  0  0  0  0  0  0  0  0  0  0
   -8.6672  -16.6320   26.3382 H   0  0  0  0  0  0  0  0  0  0  0  0
   -8.7241  -15.4050   27.5486 H   0  0  0  0  0  0  0  0  0  0  0  0
  -10.0161  -17.0456   28.6296 H   0  0  0  0  0  0  0  0  0  0  0  0
   -8.3462  -17.0706   29.3531 H   0  0  0  0  0  0  0  0  0  0  0  0
  1  2  1  0
  2  3  1  0
  3  4  1  0
  4  5  2  0
  4  6  1  0
  6  7  1  0
  7  8  1  0
  8  9  1  0
  9 10  1  0
 10 11  2  0
 10 12  1  0
 12 13  1  0
 12 14  1  0
 14 15  1  0
 15 16  1  0
 15 17  1  0
 17 18  1  0
 18 19  2  0
 19 20  1  0
 20 21  1  0
  9 22  1  0
 22 23  1  0
 23  6  1  0
 21 17  2  0
  1 24  1  0
  1 25  1  0
  1 26  1  0
  2 27  1  0
  2 28  1  0
  6 29  1  0
  7 30  1  0
  7 31  1  0
  8 32  1  0
  8 33  1  0
 12 34  1  0
 13 35  1  0
 13 36  1  0
 13 37  1  0
 14 38  1  0
 15 39  1  0
 16 40  1  0
 16 41  1  0
 16 42  1  0
 18 43  1  0
 20 44  1  0
 21 45  1  0
 22 46  1  0
 22 47  1  0
 23 48  1  0
 23 49  1  0
M  END
>  <Energy>  (946) 
278.583596171333

>  <compound_id>  (946) 
28267

>  <target_id>  (946) 
1

>  <reference_id>  (946) 
81

>  <inspiration_ids>  (946) 
[123, 81]

>  <energy_score>  (946) 
203.5140898162739

>  <distance_score>  (946) 
13.888402688922026

>  <path>  (946) 
/opt/xchem-fragalysis-2/maxwin/BulkDock/SCRATCH/511024/C28267-P81/C28267-P81.minimised.mol

>  <scratch_subdir>  (946) 
/opt/xchem-fragalysis-2/maxwin/BulkDock/SCRATCH/511024/C28267-P81

>  <fragmenstein_runtime>  (946) 
42.55923628807068

>  <fragmenstein_outcome>  (946) 
too moved

>  <fragmenstein_mode>  (946) 
expansion

>  <fragmenstein_error>  (946) 


$$$$
C47378-P123
     RDKit          3D

 45 47  0  0  0  0  0  0  0  0999 V2000
    2.8602  -17.3809   16.9669 O   0  0  0  0  0  0  0  0  0  0  0  0
    2.6600  -16.5899   17.8934 C   0  0  0  0  0  0  0  0  0  0  0  0
    3.3603  -15.3634   17.8374 O   0  0  0  0  0  0  0  0  0  0  0  0
    2.6575  -14.1112   18.1435 C   0  0  0  0  0  0  0  0  0  0  0  0
    3.4539  -12.3035   18.0073 C   0  0  0  0  0  0  0  0  0  0  0  0
    2.9852  -10.3748   17.6346 C   0  0  0  0  0  0  0  0  0  0  0  0
    3.8380   -8.8995   18.1821 C   0  0  0  0  0  0  0  0  0  0  0  0
    4.7866   -7.1525   17.9023 C   0  0  0  0  0  0  0  0  0  0  0  0
    4.8247   -6.2525   16.5684 C   0  0  0  0  0  0  0  0  0  0  0  0
    3.7098   -6.6965   15.4845 C   0  0  0  0  0  0  0  0  0  0  0  0
    2.8809   -8.2704   16.1620 N   0  0  0  0  0  0  0  0  0  0  0  0
    3.3885  -10.0593   16.3892 C   0  0  0  0  0  0  0  0  0  0  0  0
    3.8247  -10.8837   15.5612 O   0  0  0  0  0  0  0  0  0  0  0  0
    1.6990  -17.0056   19.0272 C   0  0  0  0  0  0  0  0  0  0  0  0
    1.7751  -16.6529   20.3378 N   0  0  0  0  0  0  0  0  0  0  0  0
    0.8021  -17.3323   20.9850 N   0  0  0  0  0  0  0  0  0  0  0  0
    0.0581  -18.1105   20.1648 C   0  0  0  0  0  0  0  0  0  0  0  0
    0.6088  -17.9575   18.9076 C   0  0  0  0  0  0  0  0  0  0  0  0
    0.0785  -18.6769   17.7138 C   0  0  0  0  0  0  0  0  0  0  0  0
   -0.8631  -19.8264   18.1344 C   0  0  0  0  0  0  0  0  0  0  0  0
   -1.8248  -19.4212   19.2701 C   0  0  0  0  0  0  0  0  0  0  0  0
   -1.0742  -18.9849   20.5439 C   0  0  0  0  0  0  0  0  0  0  0  0
    1.6793  -14.1554   17.6356 H   0  0  0  0  0  0  0  0  0  0  0  0
    2.5064  -14.3817   19.1719 H   0  0  0  0  0  0  0  0  0  0  0  0
    4.0654  -12.2257   17.1572 H   0  0  0  0  0  0  0  0  0  0  0  0
    4.2031  -12.4991   18.8060 H   0  0  0  0  0  0  0  0  0  0  0  0
    2.0426   -9.9441   17.9178 H   0  0  0  0  0  0  0  0  0  0  0  0
    4.7563   -9.1936   18.6421 H   0  0  0  0  0  0  0  0  0  0  0  0
    2.8403   -8.4625   18.4354 H   0  0  0  0  0  0  0  0  0  0  0  0
    4.6199   -6.4842   18.7105 H   0  0  0  0  0  0  0  0  0  0  0  0
    5.8220   -7.2292   18.1627 H   0  0  0  0  0  0  0  0  0  0  0  0
    5.8399   -6.2738   16.1506 H   0  0  0  0  0  0  0  0  0  0  0  0
    4.6833   -5.1981   16.7711 H   0  0  0  0  0  0  0  0  0  0  0  0
    2.9652   -5.9015   15.3015 H   0  0  0  0  0  0  0  0  0  0  0  0
    4.1749   -6.7739   14.4855 H   0  0  0  0  0  0  0  0  0  0  0  0
    2.0762   -8.0904   16.7782 H   0  0  0  0  0  0  0  0  0  0  0  0
    0.7178  -17.2010   21.9871 H   0  0  0  0  0  0  0  0  0  0  0  0
    0.8926  -19.0865   17.1075 H   0  0  0  0  0  0  0  0  0  0  0  0
   -0.4749  -17.9640   17.0909 H   0  0  0  0  0  0  0  0  0  0  0  0
   -1.4358  -20.1636   17.2631 H   0  0  0  0  0  0  0  0  0  0  0  0
   -0.2620  -20.6812   18.4712 H   0  0  0  0  0  0  0  0  0  0  0  0
   -2.4571  -18.5955   18.9187 H   0  0  0  0  0  0  0  0  0  0  0  0
   -2.4934  -20.2559   19.5094 H   0  0  0  0  0  0  0  0  0  0  0  0
   -1.7615  -18.4703   21.2237 H   0  0  0  0  0  0  0  0  0  0  0  0
   -0.6892  -19.8703   21.0631 H   0  0  0  0  0  0  0  0  0  0  0  0
  1  2  2  0
  2  3  1  0
  3  4  1  0
  4  5  1  0
  5  6  1  0
  6  7  1  0
  7  8  1  0
  8  9  1  0
  9 10  1  0
 10 11  1  0
 11 12  1  0
 12 13  2  0
  2 14  1  0
 14 15  2  0
 15 16  1  0
 16 17  1  0
 17 18  2  0
 18 19  1  0
 19 20  1  0
 20 21  1  0
 21 22  1  0
 12  6  1  0
 18 14  1  0
 22 17  1  0
  4 23  1  0
  4 24  1  0
  5 25  1  0
  5 26  1  0
  6 27  1  0
  7 28  1  0
  7 29  1  0
  8 30  1  0
  8 31  1  0
  9 32  1  0
  9 33  1  0
 10 34  1  0
 10 35  1  0
 11 36  1  0
 16 37  1  0
 19 38  1  0
 19 39  1  0
 20 40  1  0
 20 41  1  0
 21 42  1  0
 21 43  1  0
 22 44  1  0
 22 45  1  0
M  END
>  <Energy>  (947) 
527.97407358430712

>  <compound_id>  (947) 
47378

>  <target_id>  (947) 
1

>  <reference_id>  (947) 
123

>  <inspiration_ids>  (947) 
[123, 81]

>  <energy_score>  (947) 
428.688985540697

>  <distance_score>  (947) 
17.192351744892395

>  <path>  (947) 
/opt/xchem-fragalysis-2/maxwin/BulkDock/SCRATCH/511024/C47378-P123/C47378-P123.minimised.mol

>  <scratch_subdir>  (947) 
/opt/xchem-fragalysis-2/maxwin/BulkDock/SCRATCH/511024/C47378-P123

>  <fragmenstein_runtime>  (947) 
26.29033589363098

>  <fragmenstein_outcome>  (947) 
too moved

>  <fragmenstein_mode>  (947) 
expansion

>  <fragmenstein_error>  (947) 


$$$$
C47378-P81
     RDKit          3D

 45 47  0  0  0  0  0  0  0  0999 V2000
   -5.8508  -18.5682   26.4878 O   0  0  0  0  0  0  0  0  0  0  0  0
   -6.0756  -17.3563   26.4832 C   0  0  0  0  0  0  0  0  0  0  0  0
   -5.1807  -16.5468   25.7964 O   0  0  0  0  0  0  0  0  0  0  0  0
   -5.0858  -15.0994   25.4786 C   0  0  0  0  0  0  0  0  0  0  0  0
   -4.0387  -14.9456   24.3132 C   0  0  0  0  0  0  0  0  0  0  0  0
   -3.5062  -13.4872   23.8389 C   0  0  0  0  0  0  0  0  0  0  0  0
   -2.3956  -12.8760   24.7610 C   0  0  0  0  0  0  0  0  0  0  0  0
   -1.1555  -12.1985   24.1246 C   0  0  0  0  0  0  0  0  0  0  0  0
   -1.3966  -10.9273   23.3007 C   0  0  0  0  0  0  0  0  0  0  0  0
   -2.5771  -11.0142   22.3560 C   0  0  0  0  0  0  0  0  0  0  0  0
   -2.6638  -12.3175   21.7442 N   0  0  0  0  0  0  0  0  0  0  0  0
   -3.0236  -13.4954   22.3544 C   0  0  0  0  0  0  0  0  0  0  0  0
   -2.9745  -14.5296   21.6896 O   0  0  0  0  0  0  0  0  0  0  0  0
   -7.2915  -16.8320   27.1831 C   0  0  0  0  0  0  0  0  0  0  0  0
   -7.5535  -15.5132   27.2640 N   0  0  0  0  0  0  0  0  0  0  0  0
   -8.6712  -15.4177   27.9951 N   0  0  0  0  0  0  0  0  0  0  0  0
   -9.1950  -16.6090   28.3624 C   0  0  0  0  0  0  0  0  0  0  0  0
   -8.3596  -17.5960   27.8955 C   0  0  0  0  0  0  0  0  0  0  0  0
   -8.4365  -19.1365   28.2926 C   0  0  0  0  0  0  0  0  0  0  0  0
  -10.0737  -20.2778   28.9981 C   0  0  0  0  0  0  0  0  0  0  0  0
  -10.9201  -18.3093   28.8675 C   0  0  0  0  0  0  0  0  0  0  0  0
  -10.5150  -16.7752   29.0046 C   0  0  0  0  0  0  0  0  0  0  0  0
   -6.0660  -14.7353   25.1620 H   0  0  0  0  0  0  0  0  0  0  0  0
   -4.7403  -14.5829   26.3776 H   0  0  0  0  0  0  0  0  0  0  0  0
   -3.1598  -15.5589   24.5530 H   0  0  0  0  0  0  0  0  0  0  0  0
   -4.4900  -15.4408   23.4429 H   0  0  0  0  0  0  0  0  0  0  0  0
   -4.3831  -12.8268   23.8609 H   0  0  0  0  0  0  0  0  0  0  0  0
   -2.8774  -12.1569   25.4361 H   0  0  0  0  0  0  0  0  0  0  0  0
   -2.0202  -13.6753   25.4131 H   0  0  0  0  0  0  0  0  0  0  0  0
   -0.6507  -12.9473   23.5084 H   0  0  0  0  0  0  0  0  0  0  0  0
   -0.4495  -11.9555   24.9279 H   0  0  0  0  0  0  0  0  0  0  0  0
   -1.5342  -10.0687   23.9679 H   0  0  0  0  0  0  0  0  0  0  0  0
   -0.5039  -10.7253   22.7079 H   0  0  0  0  0  0  0  0  0  0  0  0
   -3.5103  -10.8301   22.8987 H   0  0  0  0  0  0  0  0  0  0  0  0
   -2.4979  -10.2659   21.5612 H   0  0  0  0  0  0  0  0  0  0  0  0
   -2.3918  -12.4195   20.7729 H   0  0  0  0  0  0  0  0  0  0  0  0
   -9.0458  -14.4910   28.1713 H   0  0  0  0  0  0  0  0  0  0  0  0
   -7.5889  -19.6995   27.8434 H   0  0  0  0  0  0  0  0  0  0  0  0
   -7.6929  -18.8733   29.0805 H   0  0  0  0  0  0  0  0  0  0  0  0
  -10.2474  -20.7179   30.0164 H   0  0  0  0  0  0  0  0  0  0  0  0
  -10.2640  -21.1933   28.3234 H   0  0  0  0  0  0  0  0  0  0  0  0
  -10.7532  -17.9720   27.8473 H   0  0  0  0  0  0  0  0  0  0  0  0
  -12.0158  -18.3760   28.8835 H   0  0  0  0  0  0  0  0  0  0  0  0
  -10.7370  -16.2601   29.9399 H   0  0  0  0  0  0  0  0  0  0  0  0
  -11.1926  -16.1755   28.3766 H   0  0  0  0  0  0  0  0  0  0  0  0
  1  2  2  0
  2  3  1  0
  3  4  1  0
  4  5  1  0
  5  6  1  0
  6  7  1  0
  7  8  1  0
  8  9  1  0
  9 10  1  0
 10 11  1  0
 11 12  1  0
 12 13  2  0
  2 14  1  0
 14 15  2  0
 15 16  1  0
 16 17  1  0
 17 18  2  0
 18 19  1  0
 19 20  1  0
 20 21  1  0
 21 22  1  0
 12  6  1  0
 18 14  1  0
 22 17  1  0
  4 23  1  0
  4 24  1  0
  5 25  1  0
  5 26  1  0
  6 27  1  0
  7 28  1  0
  7 29  1  0
  8 30  1  0
  8 31  1  0
  9 32  1  0
  9 33  1  0
 10 34  1  0
 10 35  1  0
 11 36  1  0
 16 37  1  0
 19 38  1  0
 19 39  1  0
 20 40  1  0
 20 41  1  0
 21 42  1  0
 21 43  1  0
 22 44  1  0
 22 45  1  0
M  END
>  <Energy>  (948) 
353.7193107107085

>  <compound_id>  (948) 
47378

>  <target_id>  (948) 
1

>  <reference_id>  (948) 
81

>  <inspiration_ids>  (948) 
[123, 81]

>  <energy_score>  (948) 
254.43422266709365

>  <distance_score>  (948) 
14.54505398467373

>  <path>  (948) 
/opt/xchem-fragalysis-2/maxwin/BulkDock/SCRATCH/511024/C47378-P81/C47378-P81.minimised.mol

>  <scratch_subdir>  (948) 
/opt/xchem-fragalysis-2/maxwin/BulkDock/SCRATCH/511024/C47378-P81

>  <fragmenstein_runtime>  (948) 
29.60918354988098

>  <fragmenstein_outcome>  (948) 
too moved

>  <fragmenstein_mode>  (948) 
expansion

>  <fragmenstein_error>  (948) 


$$$$
C47379-P123
     RDKit          3D

 36 38  0  0  0  0  0  0  0  0999 V2000
   -7.3123  -11.9198   27.4257 C   0  0  0  0  0  0  0  0  0  0  0  0
   -6.2054  -10.8515   27.4939 C   0  0  0  0  0  0  0  0  0  0  0  0
   -5.9476  -10.3655   26.1630 O   0  0  0  0  0  0  0  0  0  0  0  0
   -4.6489  -10.3170   25.7041 C   0  0  0  0  0  0  0  0  0  0  0  0
   -3.6607  -10.4190   26.4159 O   0  0  0  0  0  0  0  0  0  0  0  0
   -4.6696  -10.2130   24.1200 C   0  0  0  0  0  0  0  0  0  0  0  0
   -5.5869  -11.3022   23.5803 C   0  0  0  0  0  0  0  0  0  0  0  0
   -6.9500  -11.6674   23.7789 C   0  0  0  0  0  0  0  0  0  0  0  0
   -7.1116  -12.8968   23.1779 C   0  0  0  0  0  0  0  0  0  0  0  0
   -5.9298  -13.3013   22.6140 O   0  0  0  0  0  0  0  0  0  0  0  0
   -5.0453  -12.3074   22.8470 C   0  0  0  0  0  0  0  0  0  0  0  0
   -3.6165  -12.3367   22.5350 C   0  0  0  0  0  0  0  0  0  0  0  0
   -2.9827  -11.2619   23.4991 C   0  0  0  0  0  0  0  0  0  0  0  0
   -3.3810   -9.7928   23.2285 N   0  0  0  0  0  0  0  0  0  0  0  0
   -2.2700   -8.9146   23.5339 C   0  0  0  0  0  0  0  0  0  0  0  0
   -1.9797   -8.3516   24.5563 O   0  0  0  0  0  0  0  0  0  0  0  0
   -1.3189   -8.6264   22.3646 C   0  0  0  0  0  0  0  0  0  0  0  0
   -0.1846   -7.7287   22.4239 C   0  0  0  0  0  0  0  0  0  0  0  0
    0.4045   -7.7412   21.1824 C   0  0  0  0  0  0  0  0  0  0  0  0
   -0.3466   -8.6052   20.4489 N   0  0  0  0  0  0  0  0  0  0  0  0
   -1.3761   -9.1631   21.1277 N   0  0  0  0  0  0  0  0  0  0  0  0
   -7.5104  -12.3357   28.4173 H   0  0  0  0  0  0  0  0  0  0  0  0
   -7.0485  -12.7250   26.7365 H   0  0  0  0  0  0  0  0  0  0  0  0
   -8.2360  -11.4725   27.0433 H   0  0  0  0  0  0  0  0  0  0  0  0
   -6.5474  -10.0051   28.0974 H   0  0  0  0  0  0  0  0  0  0  0  0
   -5.3035  -11.2610   27.9561 H   0  0  0  0  0  0  0  0  0  0  0  0
   -5.2424   -9.2796   23.9847 H   0  0  0  0  0  0  0  0  0  0  0  0
   -7.7113  -11.1251   24.3231 H   0  0  0  0  0  0  0  0  0  0  0  0
   -7.9459  -13.5777   23.0672 H   0  0  0  0  0  0  0  0  0  0  0  0
   -3.1777  -13.3202   22.7257 H   0  0  0  0  0  0  0  0  0  0  0  0
   -3.4394  -12.0606   21.4907 H   0  0  0  0  0  0  0  0  0  0  0  0
   -1.9151  -11.2943   23.2275 H   0  0  0  0  0  0  0  0  0  0  0  0
   -2.9305  -11.5764   24.5483 H   0  0  0  0  0  0  0  0  0  0  0  0
    0.1241   -7.1575   23.2892 H   0  0  0  0  0  0  0  0  0  0  0  0
    1.2620   -7.2291   20.7713 H   0  0  0  0  0  0  0  0  0  0  0  0
   -0.2200   -8.8742   19.4786 H   0  0  0  0  0  0  0  0  0  0  0  0
  1  2  1  0
  2  3  1  0
  3  4  1  0
  4  5  2  0
  4  6  1  0
  6  7  1  0
  7  8  1  0
  8  9  2  0
  9 10  1  0
 10 11  1  0
 11 12  1  0
 12 13  1  0
 13 14  1  0
 14 15  1  0
 15 16  2  0
 15 17  1  0
 17 18  1  0
 18 19  2  0
 19 20  1  0
 20 21  1  0
 14  6  1  0
 21 17  2  0
 11  7  2  0
  1 22  1  0
  1 23  1  0
  1 24  1  0
  2 25  1  0
  2 26  1  0
  6 27  1  0
  8 28  1  0
  9 29  1  0
 12 30  1  0
 12 31  1  0
 13 32  1  0
 13 33  1  0
 18 34  1  0
 19 35  1  0
 20 36  1  0
M  END
>  <Energy>  (949) 
175.3746630112673

>  <compound_id>  (949) 
47379

>  <target_id>  (949) 
1

>  <reference_id>  (949) 
123

>  <inspiration_ids>  (949) 
[123, 81]

>  <energy_score>  (949) 
40.01111488507024

>  <distance_score>  (949) 
16.051780052382192

>  <path>  (949) 
/opt/xchem-fragalysis-2/maxwin/BulkDock/SCRATCH/511024/C47379-P123/C47379-P123.minimised.mol

>  <scratch_subdir>  (949) 
/opt/xchem-fragalysis-2/maxwin/BulkDock/SCRATCH/511024/C47379-P123

>  <fragmenstein_runtime>  (949) 
27.34238028526306

>  <fragmenstein_outcome>  (949) 
too moved

>  <fragmenstein_mode>  (949) 
expansion

>  <fragmenstein_error>  (949) 


$$$$
C47379-P81
     RDKit          3D

 36 38  0  0  0  0  0  0  0  0999 V2000
   -4.2682  -11.0904   27.6535 C   0  0  0  0  0  0  0  0  0  0  0  0
   -3.5125   -9.7877   27.4214 C   0  0  0  0  0  0  0  0  0  0  0  0
   -2.1319   -9.9799   27.7805 O   0  0  0  0  0  0  0  0  0  0  0  0
   -1.2581  -10.2872   26.7615 C   0  0  0  0  0  0  0  0  0  0  0  0
   -1.5571  -10.2853   25.5750 O   0  0  0  0  0  0  0  0  0  0  0  0
    0.1181  -10.6973   27.3727 C   0  0  0  0  0  0  0  0  0  0  0  0
   -0.0106  -12.1269   27.8726 C   0  0  0  0  0  0  0  0  0  0  0  0
   -1.0089  -12.8759   28.5651 C   0  0  0  0  0  0  0  0  0  0  0  0
   -0.4060  -14.0522   28.9625 C   0  0  0  0  0  0  0  0  0  0  0  0
    0.9001  -14.0730   28.5651 O   0  0  0  0  0  0  0  0  0  0  0  0
    1.1003  -12.9088   27.9125 C   0  0  0  0  0  0  0  0  0  0  0  0
    2.3916  -12.4116   27.4535 C   0  0  0  0  0  0  0  0  0  0  0  0
    2.1914  -10.8491   27.3818 C   0  0  0  0  0  0  0  0  0  0  0  0
    1.2530  -10.2342   26.3153 N   0  0  0  0  0  0  0  0  0  0  0  0
    1.5879  -10.7445   25.0150 C   0  0  0  0  0  0  0  0  0  0  0  0
    1.1702  -11.7036   24.4214 O   0  0  0  0  0  0  0  0  0  0  0  0
    2.5755   -9.8277   24.2730 C   0  0  0  0  0  0  0  0  0  0  0  0
    3.0040   -9.9743   22.9055 C   0  0  0  0  0  0  0  0  0  0  0  0
    3.8623   -8.9317   22.6406 C   0  0  0  0  0  0  0  0  0  0  0  0
    3.9284   -8.2235   23.7986 N   0  0  0  0  0  0  0  0  0  0  0  0
    3.1895   -8.7408   24.8039 N   0  0  0  0  0  0  0  0  0  0  0  0
   -5.3047  -11.0092   27.3183 H   0  0  0  0  0  0  0  0  0  0  0  0
   -3.7484  -11.8815   27.1146 H   0  0  0  0  0  0  0  0  0  0  0  0
   -4.2558  -11.3538   28.7158 H   0  0  0  0  0  0  0  0  0  0  0  0
   -3.9138   -9.0018   28.0690 H   0  0  0  0  0  0  0  0  0  0  0  0
   -3.6206   -9.4478   26.3860 H   0  0  0  0  0  0  0  0  0  0  0  0
    0.2076  -10.0064   28.2299 H   0  0  0  0  0  0  0  0  0  0  0  0
   -2.0119  -12.5680   28.8163 H   0  0  0  0  0  0  0  0  0  0  0  0
   -0.7186  -14.9123   29.5315 H   0  0  0  0  0  0  0  0  0  0  0  0
    2.6567  -12.8274   26.4776 H   0  0  0  0  0  0  0  0  0  0  0  0
    3.1875  -12.6483   28.1663 H   0  0  0  0  0  0  0  0  0  0  0  0
    2.1139  -10.3702   28.3730 H   0  0  0  0  0  0  0  0  0  0  0  0
    3.1802  -10.4929   27.0517 H   0  0  0  0  0  0  0  0  0  0  0  0
    2.6898  -10.7527   22.2229 H   0  0  0  0  0  0  0  0  0  0  0  0
    4.4083   -8.6431   21.7541 H   0  0  0  0  0  0  0  0  0  0  0  0
    4.4605   -7.3806   23.9852 H   0  0  0  0  0  0  0  0  0  0  0  0
  1  2  1  0
  2  3  1  0
  3  4  1  0
  4  5  2  0
  4  6  1  0
  6  7  1  0
  7  8  1  0
  8  9  2  0
  9 10  1  0
 10 11  1  0
 11 12  1  0
 12 13  1  0
 13 14  1  0
 14 15  1  0
 15 16  2  0
 15 17  1  0
 17 18  1  0
 18 19  2  0
 19 20  1  0
 20 21  1  0
 14  6  1  0
 21 17  2  0
 11  7  2  0
  1 22  1  0
  1 23  1  0
  1 24  1  0
  2 25  1  0
  2 26  1  0
  6 27  1  0
  8 28  1  0
  9 29  1  0
 12 30  1  0
 12 31  1  0
 13 32  1  0
 13 33  1  0
 18 34  1  0
 19 35  1  0
 20 36  1  0
M  END
>  <Energy>  (950) 
169.93967901364826

>  <compound_id>  (950) 
47379

>  <target_id>  (950) 
1

>  <reference_id>  (950) 
81

>  <inspiration_ids>  (950) 
[123, 81]

>  <energy_score>  (950) 
34.57613088744381

>  <distance_score>  (950) 
16.19797239718868

>  <path>  (950) 
/opt/xchem-fragalysis-2/maxwin/BulkDock/SCRATCH/511024/C47379-P81/C47379-P81.minimised.mol

>  <scratch_subdir>  (950) 
/opt/xchem-fragalysis-2/maxwin/BulkDock/SCRATCH/511024/C47379-P81

>  <fragmenstein_runtime>  (950) 
40.36242628097534

>  <fragmenstein_outcome>  (950) 
too moved

>  <fragmenstein_mode>  (950) 
expansion

>  <fragmenstein_error>  (950) 


$$$$
C47382-P123
     RDKit          3D

 33 35  0  0  0  0  0  0  0  0999 V2000
   -7.5817  -19.3941   21.4854 C   0  0  0  0  0  0  0  0  0  0  0  0
   -7.6818  -18.2749   20.4550 C   0  0  0  0  0  0  0  0  0  0  0  0
   -6.3890  -17.7222   20.1490 O   0  0  0  0  0  0  0  0  0  0  0  0
   -6.4455  -16.5782   19.3972 C   0  0  0  0  0  0  0  0  0  0  0  0
   -7.4928  -16.0819   18.9887 O   0  0  0  0  0  0  0  0  0  0  0  0
   -5.1181  -16.0315   19.1060 C   0  0  0  0  0  0  0  0  0  0  0  0
   -4.0295  -16.2380   19.8221 N   0  0  0  0  0  0  0  0  0  0  0  0
   -3.0146  -15.5456   19.1861 C   0  0  0  0  0  0  0  0  0  0  0  0
   -3.4633  -14.8161   18.0922 C   0  0  0  0  0  0  0  0  0  0  0  0
   -4.8121  -15.1936   18.0451 N   0  0  0  0  0  0  0  0  0  0  0  0
   -5.7412  -14.8763   16.9716 C   0  0  0  0  0  0  0  0  0  0  0  0
   -5.0756  -14.6560   15.6279 C   0  0  0  0  0  0  0  0  0  0  0  0
   -3.9273  -13.2760   15.7504 S   0  0  0  0  0  0  0  0  0  0  0  0
   -2.7140  -14.0447   16.9414 C   0  0  0  0  0  0  0  0  0  0  0  0
   -1.6095  -12.9434   17.1650 C   0  0  0  0  0  0  0  0  0  0  0  0
   -1.7403  -11.6043   17.6576 C   0  0  0  0  0  0  0  0  0  0  0  0
   -0.5453  -10.9708   17.3913 C   0  0  0  0  0  0  0  0  0  0  0  0
    0.2451  -11.9105   16.8063 N   0  0  0  0  0  0  0  0  0  0  0  0
   -0.3627  -13.1048   16.6592 N   0  0  0  0  0  0  0  0  0  0  0  0
   -8.5683  -19.8224   21.6807 H   0  0  0  0  0  0  0  0  0  0  0  0
   -7.1688  -19.0104   22.4231 H   0  0  0  0  0  0  0  0  0  0  0  0
   -6.9173  -20.1861   21.1274 H   0  0  0  0  0  0  0  0  0  0  0  0
   -8.3380  -17.4927   20.8550 H   0  0  0  0  0  0  0  0  0  0  0  0
   -8.1182  -18.6730   19.5319 H   0  0  0  0  0  0  0  0  0  0  0  0
   -1.9951  -15.6478   19.5309 H   0  0  0  0  0  0  0  0  0  0  0  0
   -6.3173  -14.0019   17.2964 H   0  0  0  0  0  0  0  0  0  0  0  0
   -6.4279  -15.7202   16.8540 H   0  0  0  0  0  0  0  0  0  0  0  0
   -4.5410  -15.5502   15.2893 H   0  0  0  0  0  0  0  0  0  0  0  0
   -5.8314  -14.4167   14.8733 H   0  0  0  0  0  0  0  0  0  0  0  0
   -2.2191  -14.8391   16.3632 H   0  0  0  0  0  0  0  0  0  0  0  0
   -2.6267  -11.1555   18.0842 H   0  0  0  0  0  0  0  0  0  0  0  0
   -0.2027   -9.9606   17.5613 H   0  0  0  0  0  0  0  0  0  0  0  0
    1.2028  -11.8167   16.4838 H   0  0  0  0  0  0  0  0  0  0  0  0
  1  2  1  0
  2  3  1  0
  3  4  1  0
  4  5  2  0
  4  6  1  0
  6  7  2  0
  7  8  1  0
  8  9  2  0
  9 10  1  0
 10 11  1  0
 11 12  1  0
 12 13  1  0
 13 14  1  0
 14 15  1  0
 15 16  1  0
 16 17  2  0
 17 18  1  0
 18 19  1  0
 10  6  1  0
 19 15  2  0
 14  9  1  0
  1 20  1  0
  1 21  1  0
  1 22  1  0
  2 23  1  0
  2 24  1  0
  8 25  1  0
 11 26  1  0
 11 27  1  0
 12 28  1  0
 12 29  1  0
 14 30  1  0
 16 31  1  0
 17 32  1  0
 18 33  1  0
M  END
>  <Energy>  (951) 
73.492351309198511

>  <compound_id>  (951) 
47382

>  <target_id>  (951) 
1

>  <reference_id>  (951) 
123

>  <inspiration_ids>  (951) 
[123, 81]

>  <energy_score>  (951) 
-16.249991240847294

>  <distance_score>  (951) 
15.934676958630046

>  <path>  (951) 
/opt/xchem-fragalysis-2/maxwin/BulkDock/SCRATCH/511024/C47382-P123/C47382-P123.minimised.mol

>  <scratch_subdir>  (951) 
/opt/xchem-fragalysis-2/maxwin/BulkDock/SCRATCH/511024/C47382-P123

>  <fragmenstein_runtime>  (951) 
37.24307990074158

>  <fragmenstein_outcome>  (951) 
too moved

>  <fragmenstein_mode>  (951) 
expansion

>  <fragmenstein_error>  (951) 


$$$$
C47382-P81
     RDKit          3D

 33 35  0  0  0  0  0  0  0  0999 V2000
   -0.6300  -25.7272   27.8738 C   0  0  0  0  0  0  0  0  0  0  0  0
    0.8844  -25.8571   28.0980 C   0  0  0  0  0  0  0  0  0  0  0  0
    1.5576  -24.9913   27.1657 O   0  0  0  0  0  0  0  0  0  0  0  0
    2.8746  -24.6977   27.3893 C   0  0  0  0  0  0  0  0  0  0  0  0
    3.5319  -25.2426   28.2697 O   0  0  0  0  0  0  0  0  0  0  0  0
    3.3214  -23.6025   26.5181 C   0  0  0  0  0  0  0  0  0  0  0  0
    4.4062  -22.8962   26.7905 N   0  0  0  0  0  0  0  0  0  0  0  0
    4.5684  -21.7749   25.9578 C   0  0  0  0  0  0  0  0  0  0  0  0
    3.4984  -21.4931   25.0603 C   0  0  0  0  0  0  0  0  0  0  0  0
    2.6821  -23.0884   25.3934 N   0  0  0  0  0  0  0  0  0  0  0  0
    0.8056  -23.5644   24.9326 C   0  0  0  0  0  0  0  0  0  0  0  0
    0.0288  -22.2601   23.5517 C   0  0  0  0  0  0  0  0  0  0  0  0
    0.5661  -19.9244   23.2151 S   0  0  0  0  0  0  0  0  0  0  0  0
    2.8812  -19.6616   24.3125 C   0  0  0  0  0  0  0  0  0  0  0  0
    3.2797  -17.8268   24.7269 C   0  0  0  0  0  0  0  0  0  0  0  0
    3.3942  -16.8334   26.0714 C   0  0  0  0  0  0  0  0  0  0  0  0
    4.1231  -15.2986   25.5232 C   0  0  0  0  0  0  0  0  0  0  0  0
    4.4980  -15.6220   24.1580 N   0  0  0  0  0  0  0  0  0  0  0  0
    3.8542  -16.7941   23.5739 N   0  0  0  0  0  0  0  0  0  0  0  0
   -1.1798  -26.3817   28.5555 H   0  0  0  0  0  0  0  0  0  0  0  0
   -0.9503  -24.6929   28.0342 H   0  0  0  0  0  0  0  0  0  0  0  0
   -0.8869  -25.9867   26.8417 H   0  0  0  0  0  0  0  0  0  0  0  0
    1.2035  -26.8880   27.9151 H   0  0  0  0  0  0  0  0  0  0  0  0
    1.1294  -25.5689   29.1258 H   0  0  0  0  0  0  0  0  0  0  0  0
    5.4025  -21.1127   26.1404 H   0  0  0  0  0  0  0  0  0  0  0  0
    0.4532  -23.6874   25.9516 H   0  0  0  0  0  0  0  0  0  0  0  0
    0.9512  -24.6255   24.6008 H   0  0  0  0  0  0  0  0  0  0  0  0
    0.1901  -22.6183   22.5250 H   0  0  0  0  0  0  0  0  0  0  0  0
   -1.0210  -22.0778   23.5952 H   0  0  0  0  0  0  0  0  0  0  0  0
    3.4358  -19.6585   23.3789 H   0  0  0  0  0  0  0  0  0  0  0  0
    3.0087  -16.9935   27.0775 H   0  0  0  0  0  0  0  0  0  0  0  0
    4.1711  -14.3305   25.9878 H   0  0  0  0  0  0  0  0  0  0  0  0
    5.1833  -15.1685   23.5807 H   0  0  0  0  0  0  0  0  0  0  0  0
  1  2  1  0
  2  3  1  0
  3  4  1  0
  4  5  2  0
  4  6  1  0
  6  7  2  0
  7  8  1  0
  8  9  2  0
  9 10  1  0
 10 11  1  0
 11 12  1  0
 12 13  1  0
 13 14  1  0
 14 15  1  0
 15 16  1  0
 16 17  2  0
 17 18  1  0
 18 19  1  0
 10  6  1  0
 19 15  2  0
 14  9  1  0
  1 20  1  0
  1 21  1  0
  1 22  1  0
  2 23  1  0
  2 24  1  0
  8 25  1  0
 11 26  1  0
 11 27  1  0
 12 28  1  0
 12 29  1  0
 14 30  1  0
 16 31  1  0
 17 32  1  0
 18 33  1  0
M  END
>  <Energy>  (952) 
697.76077146068894

>  <compound_id>  (952) 
47382

>  <target_id>  (952) 
1

>  <reference_id>  (952) 
81

>  <inspiration_ids>  (952) 
[123, 81]

>  <energy_score>  (952) 
608.0184289106253

>  <distance_score>  (952) 
17.048077730083733

>  <path>  (952) 
/opt/xchem-fragalysis-2/maxwin/BulkDock/SCRATCH/511024/C47382-P81/C47382-P81.minimised.mol

>  <scratch_subdir>  (952) 
/opt/xchem-fragalysis-2/maxwin/BulkDock/SCRATCH/511024/C47382-P81

>  <fragmenstein_runtime>  (952) 
27.336390018463135

>  <fragmenstein_outcome>  (952) 
too moved

>  <fragmenstein_mode>  (952) 
expansion

>  <fragmenstein_error>  (952) 


$$$$
C28275-P123
     RDKit          3D

 36 37  0  0  0  0  0  0  0  0999 V2000
  -10.5346  -22.1168   28.3754 C   0  0  0  0  0  0  0  0  0  0  0  0
  -10.2313  -20.8073   29.1501 C   0  0  0  0  0  0  0  0  0  0  0  0
   -8.9680  -19.4282   28.5104 O   0  0  0  0  0  0  0  0  0  0  0  0
   -7.2744  -19.0938   28.5531 C   0  0  0  0  0  0  0  0  0  0  0  0
   -6.6908  -19.7284   27.6463 O   0  0  0  0  0  0  0  0  0  0  0  0
   -6.0287  -18.1519   29.6159 C   0  0  0  0  0  0  0  0  0  0  0  0
   -4.4417  -18.3183   28.9505 C   0  0  0  0  0  0  0  0  0  0  0  0
   -3.0694  -18.2927   29.6921 N   0  0  0  0  0  0  0  0  0  0  0  0
   -2.2857  -16.9523   30.3878 S   0  0  0  0  0  0  0  0  0  0  0  0
   -3.2277  -15.8620   30.4869 O   0  0  0  0  0  0  0  0  0  0  0  0
   -1.6859  -17.5054   31.5879 O   0  0  0  0  0  0  0  0  0  0  0  0
   -0.8576  -16.2116   29.6424 C   0  0  0  0  0  0  0  0  0  0  0  0
    0.3585  -16.8198   29.2475 C   0  0  0  0  0  0  0  0  0  0  0  0
    1.3442  -15.9341   28.9869 N   0  0  0  0  0  0  0  0  0  0  0  0
    0.7657  -14.7434   29.2276 N   0  0  0  0  0  0  0  0  0  0  0  0
   -0.5225  -14.8644   29.6722 C   0  0  0  0  0  0  0  0  0  0  0  0
   -5.5724  -18.3860   31.0924 C   0  0  0  0  0  0  0  0  0  0  0  0
   -6.2854  -17.1205   31.5491 C   0  0  0  0  0  0  0  0  0  0  0  0
   -6.5689  -16.7729   30.0843 C   0  0  0  0  0  0  0  0  0  0  0  0
  -11.1165  -21.9299   27.4693 H   0  0  0  0  0  0  0  0  0  0  0  0
   -9.6619  -22.7406   28.1773 H   0  0  0  0  0  0  0  0  0  0  0  0
  -11.2037  -22.7290   28.9962 H   0  0  0  0  0  0  0  0  0  0  0  0
  -10.1117  -20.9395   30.2325 H   0  0  0  0  0  0  0  0  0  0  0  0
  -11.2639  -20.4551   29.2641 H   0  0  0  0  0  0  0  0  0  0  0  0
   -4.4459  -19.3168   28.4972 H   0  0  0  0  0  0  0  0  0  0  0  0
   -4.2382  -17.6166   28.1671 H   0  0  0  0  0  0  0  0  0  0  0  0
   -2.9650  -19.1017   30.3079 H   0  0  0  0  0  0  0  0  0  0  0  0
    0.5778  -17.8776   29.1757 H   0  0  0  0  0  0  0  0  0  0  0  0
    1.3212  -13.9020   29.1145 H   0  0  0  0  0  0  0  0  0  0  0  0
   -1.0798  -14.0218   30.0513 H   0  0  0  0  0  0  0  0  0  0  0  0
   -5.6304  -19.3628   31.5644 H   0  0  0  0  0  0  0  0  0  0  0  0
   -4.5322  -18.1888   31.3659 H   0  0  0  0  0  0  0  0  0  0  0  0
   -5.6266  -16.3943   32.0427 H   0  0  0  0  0  0  0  0  0  0  0  0
   -7.1231  -17.2537   32.2213 H   0  0  0  0  0  0  0  0  0  0  0  0
   -7.6064  -16.5749   29.8240 H   0  0  0  0  0  0  0  0  0  0  0  0
   -6.0026  -15.9088   29.7552 H   0  0  0  0  0  0  0  0  0  0  0  0
  1  2  1  0
  2  3  1  0
  3  4  1  0
  4  5  2  0
  4  6  1  0
  6  7  1  0
  7  8  1  0
  8  9  1  0
  9 10  2  0
  9 11  2  0
  9 12  1  0
 12 13  1  0
 13 14  2  0
 14 15  1  0
 15 16  1  0
  6 17  1  0
 17 18  1  0
 18 19  1  0
 19  6  1  0
 16 12  2  0
  1 20  1  0
  1 21  1  0
  1 22  1  0
  2 23  1  0
  2 24  1  0
  7 25  1  0
  7 26  1  0
  8 27  1  0
 13 28  1  0
 15 29  1  0
 16 30  1  0
 17 31  1  0
 17 32  1  0
 18 33  1  0
 18 34  1  0
 19 35  1  0
 19 36  1  0
M  END
>  <Energy>  (953) 
217.72642234818764

>  <compound_id>  (953) 
28275

>  <target_id>  (953) 
1

>  <reference_id>  (953) 
123

>  <inspiration_ids>  (953) 
[123, 81]

>  <energy_score>  (953) 
220.99438853384936

>  <distance_score>  (953) 
15.417203287973338

>  <path>  (953) 
/opt/xchem-fragalysis-2/maxwin/BulkDock/SCRATCH/511024/C28275-P123/C28275-P123.minimised.mol

>  <scratch_subdir>  (953) 
/opt/xchem-fragalysis-2/maxwin/BulkDock/SCRATCH/511024/C28275-P123

>  <fragmenstein_runtime>  (953) 
17.95941424369812

>  <fragmenstein_outcome>  (953) 
too moved

>  <fragmenstein_mode>  (953) 
expansion

>  <fragmenstein_error>  (953) 


$$$$
C28275-P81
     RDKit          3D

 36 37  0  0  0  0  0  0  0  0999 V2000
   -9.4692  -21.9006   27.9758 C   0  0  0  0  0  0  0  0  0  0  0  0
   -7.6029  -21.3724   27.3876 C   0  0  0  0  0  0  0  0  0  0  0  0
   -6.1498  -20.0035   27.3312 O   0  0  0  0  0  0  0  0  0  0  0  0
   -5.1106  -18.6050   27.9675 C   0  0  0  0  0  0  0  0  0  0  0  0
   -5.6049  -18.1739   29.0491 O   0  0  0  0  0  0  0  0  0  0  0  0
   -3.2848  -17.4926   27.4871 C   0  0  0  0  0  0  0  0  0  0  0  0
   -2.2679  -15.7723   26.8566 C   0  0  0  0  0  0  0  0  0  0  0  0
   -1.6578  -14.5743   25.1804 N   0  0  0  0  0  0  0  0  0  0  0  0
    0.4992  -14.0981   24.1219 S   0  0  0  0  0  0  0  0  0  0  0  0
   -0.1948  -14.0571   22.8203 O   0  0  0  0  0  0  0  0  0  0  0  0
    1.3887  -12.8149   23.6739 O   0  0  0  0  0  0  0  0  0  0  0  0
    2.7249  -13.2898   24.3331 C   0  0  0  0  0  0  0  0  0  0  0  0
    3.4869  -11.8948   23.7680 C   0  0  0  0  0  0  0  0  0  0  0  0
    4.7134  -11.4070   24.3829 N   0  0  0  0  0  0  0  0  0  0  0  0
    5.1394  -12.6780   25.3319 N   0  0  0  0  0  0  0  0  0  0  0  0
    3.9918  -13.8764   25.0253 C   0  0  0  0  0  0  0  0  0  0  0  0
   -2.8460  -17.3122   29.0750 C   0  0  0  0  0  0  0  0  0  0  0  0
   -2.3536  -18.7632   29.0522 C   0  0  0  0  0  0  0  0  0  0  0  0
   -2.1503  -18.6176   27.5357 C   0  0  0  0  0  0  0  0  0  0  0  0
  -10.0048  -21.5110   28.8741 H   0  0  0  0  0  0  0  0  0  0  0  0
   -9.4799  -23.0099   27.9490 H   0  0  0  0  0  0  0  0  0  0  0  0
  -10.3344  -21.5801   27.3641 H   0  0  0  0  0  0  0  0  0  0  0  0
   -7.5737  -22.1770   26.6253 H   0  0  0  0  0  0  0  0  0  0  0  0
   -6.9442  -22.1820   27.7166 H   0  0  0  0  0  0  0  0  0  0  0  0
   -2.5779  -14.9735   27.5144 H   0  0  0  0  0  0  0  0  0  0  0  0
   -1.4451  -15.8985   27.5635 H   0  0  0  0  0  0  0  0  0  0  0  0
   -1.9657  -13.6122   25.3303 H   0  0  0  0  0  0  0  0  0  0  0  0
    3.0997  -11.2561   23.0330 H   0  0  0  0  0  0  0  0  0  0  0  0
    5.8533  -12.6247   26.0521 H   0  0  0  0  0  0  0  0  0  0  0  0
    4.2777  -14.7455   25.5970 H   0  0  0  0  0  0  0  0  0  0  0  0
   -3.6436  -17.1010   29.7904 H   0  0  0  0  0  0  0  0  0  0  0  0
   -2.0408  -16.6074   29.3045 H   0  0  0  0  0  0  0  0  0  0  0  0
   -3.1000  -19.5101   29.3403 H   0  0  0  0  0  0  0  0  0  0  0  0
   -1.4428  -18.9574   29.6257 H   0  0  0  0  0  0  0  0  0  0  0  0
   -1.1602  -18.2597   27.2421 H   0  0  0  0  0  0  0  0  0  0  0  0
   -2.3598  -19.5296   26.9880 H   0  0  0  0  0  0  0  0  0  0  0  0
  1  2  1  0
  2  3  1  0
  3  4  1  0
  4  5  2  0
  4  6  1  0
  6  7  1  0
  7  8  1  0
  8  9  1  0
  9 10  2  0
  9 11  2  0
  9 12  1  0
 12 13  1  0
 13 14  2  0
 14 15  1  0
 15 16  1  0
  6 17  1  0
 17 18  1  0
 18 19  1  0
 19  6  1  0
 16 12  2  0
  1 20  1  0
  1 21  1  0
  1 22  1  0
  2 23  1  0
  2 24  1  0
  7 25  1  0
  7 26  1  0
  8 27  1  0
 13 28  1  0
 15 29  1  0
 16 30  1  0
 17 31  1  0
 17 32  1  0
 18 33  1  0
 18 34  1  0
 19 35  1  0
 19 36  1  0
M  END
>  <Energy>  (954) 
1383.7062454541931

>  <compound_id>  (954) 
28275

>  <target_id>  (954) 
1

>  <reference_id>  (954) 
81

>  <inspiration_ids>  (954) 
[123, 81]

>  <energy_score>  (954) 
1386.974211639853

>  <distance_score>  (954) 
12.83807463439539

>  <path>  (954) 
/opt/xchem-fragalysis-2/maxwin/BulkDock/SCRATCH/511024/C28275-P81/C28275-P81.minimised.mol

>  <scratch_subdir>  (954) 
/opt/xchem-fragalysis-2/maxwin/BulkDock/SCRATCH/511024/C28275-P81

>  <fragmenstein_runtime>  (954) 
26.122567415237427

>  <fragmenstein_outcome>  (954) 
too moved

>  <fragmenstein_mode>  (954) 
expansion

>  <fragmenstein_error>  (954) 


$$$$
C47384-P123
     RDKit          3D

 38 39  0  0  0  0  0  0  0  0999 V2000
  -12.1108  -23.4063   30.3522 C   0  0  0  0  0  0  0  0  0  0  0  0
  -11.7336  -22.1764   31.1650 C   0  0  0  0  0  0  0  0  0  0  0  0
  -10.3742  -22.3394   31.5825 O   0  0  0  0  0  0  0  0  0  0  0  0
   -9.5240  -21.1500   31.6397 C   0  0  0  0  0  0  0  0  0  0  0  0
  -10.1521  -20.1572   32.0064 O   0  0  0  0  0  0  0  0  0  0  0  0
   -7.2479  -21.4392   31.1984 C   0  0  0  0  0  0  0  0  0  0  0  0
   -7.2021  -22.1285   28.8462 C   0  0  0  0  0  0  0  0  0  0  0  0
   -5.6743  -21.7771   27.3319 C   0  0  0  0  0  0  0  0  0  0  0  0
   -4.8693  -20.1662   26.2875 N   0  0  0  0  0  0  0  0  0  0  0  0
   -2.9547  -19.3921   26.3263 C   0  0  0  0  0  0  0  0  0  0  0  0
   -2.0430  -19.9416   26.9068 O   0  0  0  0  0  0  0  0  0  0  0  0
   -2.3701  -17.6866   25.7490 C   0  0  0  0  0  0  0  0  0  0  0  0
   -2.7535  -16.1073   25.0652 C   0  0  0  0  0  0  0  0  0  0  0  0
   -2.3067  -14.9927   25.8287 C   0  0  0  0  0  0  0  0  0  0  0  0
   -2.0766  -15.6470   27.1405 N   0  0  0  0  0  0  0  0  0  0  0  0
   -2.0872  -17.1110   27.0211 N   0  0  0  0  0  0  0  0  0  0  0  0
   -6.2456  -21.1858   32.5383 C   0  0  0  0  0  0  0  0  0  0  0  0
   -7.7871  -22.3009   33.2408 C   0  0  0  0  0  0  0  0  0  0  0  0
   -8.0281  -20.9347   33.0791 C   0  0  0  0  0  0  0  0  0  0  0  0
  -13.1224  -23.3109   29.9523 H   0  0  0  0  0  0  0  0  0  0  0  0
  -12.0470  -24.3085   30.9687 H   0  0  0  0  0  0  0  0  0  0  0  0
  -11.4221  -23.5452   29.5124 H   0  0  0  0  0  0  0  0  0  0  0  0
  -12.3743  -22.0651   32.0434 H   0  0  0  0  0  0  0  0  0  0  0  0
  -11.8156  -21.3130   30.5068 H   0  0  0  0  0  0  0  0  0  0  0  0
   -8.0732  -22.8020   28.4513 H   0  0  0  0  0  0  0  0  0  0  0  0
   -7.7077  -21.4921   28.0186 H   0  0  0  0  0  0  0  0  0  0  0  0
   -6.2201  -20.8761   27.5175 H   0  0  0  0  0  0  0  0  0  0  0  0
   -5.9204  -22.5603   26.6112 H   0  0  0  0  0  0  0  0  0  0  0  0
   -5.4904  -19.5169   25.8264 H   0  0  0  0  0  0  0  0  0  0  0  0
   -3.1519  -15.8026   24.1177 H   0  0  0  0  0  0  0  0  0  0  0  0
   -2.1798  -13.9494   25.6389 H   0  0  0  0  0  0  0  0  0  0  0  0
   -1.7861  -15.1709   27.9915 H   0  0  0  0  0  0  0  0  0  0  0  0
   -5.1935  -21.4767   32.5651 H   0  0  0  0  0  0  0  0  0  0  0  0
   -5.9897  -20.1629   32.9052 H   0  0  0  0  0  0  0  0  0  0  0  0
   -8.0637  -23.2216   32.6930 H   0  0  0  0  0  0  0  0  0  0  0  0
   -7.9882  -22.8099   34.1540 H   0  0  0  0  0  0  0  0  0  0  0  0
   -7.4901  -20.3265   33.8386 H   0  0  0  0  0  0  0  0  0  0  0  0
   -8.8585  -20.2916   33.3317 H   0  0  0  0  0  0  0  0  0  0  0  0
  1  2  1  0
  2  3  1  0
  3  4  1  0
  4  5  2  0
  4  6  1  0
  6  7  1  0
  7  8  1  0
  8  9  1  0
  9 10  1  0
 10 11  2  0
 10 12  1  0
 12 13  1  0
 13 14  2  0
 14 15  1  0
 15 16  1  0
  6 17  1  0
 17 18  1  0
 18 19  1  0
 19  6  1  0
 16 12  2  0
  1 20  1  0
  1 21  1  0
  1 22  1  0
  2 23  1  0
  2 24  1  0
  7 25  1  0
  7 26  1  0
  8 27  1  0
  8 28  1  0
  9 29  1  0
 13 30  1  0
 14 31  1  0
 15 32  1  0
 17 33  1  0
 17 34  1  0
 18 35  1  0
 18 36  1  0
 19 37  1  0
 19 38  1  0
M  END
>  <Energy>  (955) 
1501.4869593583132

>  <compound_id>  (955) 
47384

>  <target_id>  (955) 
1

>  <reference_id>  (955) 
123

>  <inspiration_ids>  (955) 
[123, 81]

>  <energy_score>  (955) 
1423.9989244984408

>  <distance_score>  (955) 
14.990788027690913

>  <path>  (955) 
/opt/xchem-fragalysis-2/maxwin/BulkDock/SCRATCH/511024/C47384-P123/C47384-P123.minimised.mol

>  <scratch_subdir>  (955) 
/opt/xchem-fragalysis-2/maxwin/BulkDock/SCRATCH/511024/C47384-P123

>  <fragmenstein_runtime>  (955) 
23.339174270629883

>  <fragmenstein_outcome>  (955) 
too moved

>  <fragmenstein_mode>  (955) 
expansion

>  <fragmenstein_error>  (955) 


$$$$
C47384-P81
     RDKit          3D

 38 39  0  0  0  0  0  0  0  0999 V2000
   -8.7052  -23.7725   27.2519 C   0  0  0  0  0  0  0  0  0  0  0  0
   -7.3214  -22.5329   27.2195 C   0  0  0  0  0  0  0  0  0  0  0  0
   -7.0079  -20.7726   27.3186 O   0  0  0  0  0  0  0  0  0  0  0  0
   -5.7519  -19.8703   26.6145 C   0  0  0  0  0  0  0  0  0  0  0  0
   -5.0778  -20.3902   25.6862 O   0  0  0  0  0  0  0  0  0  0  0  0
   -5.1875  -18.0308   27.3243 C   0  0  0  0  0  0  0  0  0  0  0  0
   -3.3437  -17.0068   26.7099 C   0  0  0  0  0  0  0  0  0  0  0  0
   -2.6235  -15.6839   25.1074 C   0  0  0  0  0  0  0  0  0  0  0  0
   -1.2724  -14.1235   24.9385 N   0  0  0  0  0  0  0  0  0  0  0  0
    0.5145  -13.9594   24.0430 C   0  0  0  0  0  0  0  0  0  0  0  0
    1.0950  -14.7211   23.3328 O   0  0  0  0  0  0  0  0  0  0  0  0
    1.7312  -12.4641   24.4076 C   0  0  0  0  0  0  0  0  0  0  0  0
    2.6236  -12.2679   25.5083 C   0  0  0  0  0  0  0  0  0  0  0  0
    3.4698  -11.2400   25.1363 C   0  0  0  0  0  0  0  0  0  0  0  0
    3.1181  -10.8956   23.8697 N   0  0  0  0  0  0  0  0  0  0  0  0
    2.0829  -11.6000   23.3952 N   0  0  0  0  0  0  0  0  0  0  0  0
   -7.1916  -17.1779   27.6525 C   0  0  0  0  0  0  0  0  0  0  0  0
   -7.7468  -17.9562   28.5929 C   0  0  0  0  0  0  0  0  0  0  0  0
   -5.8629  -17.4610   28.9554 C   0  0  0  0  0  0  0  0  0  0  0  0
   -9.4938  -23.4540   27.9446 H   0  0  0  0  0  0  0  0  0  0  0  0
   -8.3708  -24.7710   27.5698 H   0  0  0  0  0  0  0  0  0  0  0  0
   -9.2239  -24.0080   26.3323 H   0  0  0  0  0  0  0  0  0  0  0  0
   -8.2025  -22.0158   27.4865 H   0  0  0  0  0  0  0  0  0  0  0  0
   -6.8684  -22.8736   26.3045 H   0  0  0  0  0  0  0  0  0  0  0  0
   -2.5374  -17.7649   26.6900 H   0  0  0  0  0  0  0  0  0  0  0  0
   -3.1331  -16.4863   27.6496 H   0  0  0  0  0  0  0  0  0  0  0  0
   -3.4072  -15.4332   24.4030 H   0  0  0  0  0  0  0  0  0  0  0  0
   -2.1786  -16.4938   24.6759 H   0  0  0  0  0  0  0  0  0  0  0  0
   -1.5016  -13.2742   25.3942 H   0  0  0  0  0  0  0  0  0  0  0  0
    2.6714  -12.8488   26.4152 H   0  0  0  0  0  0  0  0  0  0  0  0
    4.3040  -10.7750   25.6409 H   0  0  0  0  0  0  0  0  0  0  0  0
    3.5506  -10.2102   23.2600 H   0  0  0  0  0  0  0  0  0  0  0  0
   -8.0238  -16.9122   26.9361 H   0  0  0  0  0  0  0  0  0  0  0  0
   -7.3244  -16.1898   28.2094 H   0  0  0  0  0  0  0  0  0  0  0  0
   -7.6806  -18.3800   29.5481 H   0  0  0  0  0  0  0  0  0  0  0  0
   -8.7690  -17.5604   28.5063 H   0  0  0  0  0  0  0  0  0  0  0  0
   -5.5092  -16.4983   29.3178 H   0  0  0  0  0  0  0  0  0  0  0  0
   -5.7791  -18.0224   29.7909 H   0  0  0  0  0  0  0  0  0  0  0  0
  1  2  1  0
  2  3  1  0
  3  4  1  0
  4  5  2  0
  4  6  1  0
  6  7  1  0
  7  8  1  0
  8  9  1  0
  9 10  1  0
 10 11  2  0
 10 12  1  0
 12 13  1  0
 13 14  2  0
 14 15  1  0
 15 16  1  0
  6 17  1  0
 17 18  1  0
 18 19  1  0
 19  6  1  0
 16 12  2  0
  1 20  1  0
  1 21  1  0
  1 22  1  0
  2 23  1  0
  2 24  1  0
  7 25  1  0
  7 26  1  0
  8 27  1  0
  8 28  1  0
  9 29  1  0
 13 30  1  0
 14 31  1  0
 15 32  1  0
 17 33  1  0
 17 34  1  0
 18 35  1  0
 18 36  1  0
 19 37  1  0
 19 38  1  0
M  END
>  <Energy>  (956) 
1113.0359864154575

>  <compound_id>  (956) 
47384

>  <target_id>  (956) 
1

>  <reference_id>  (956) 
81

>  <inspiration_ids>  (956) 
[123, 81]

>  <energy_score>  (956) 
1035.547951555538

>  <distance_score>  (956) 
12.463341278693978

>  <path>  (956) 
/opt/xchem-fragalysis-2/maxwin/BulkDock/SCRATCH/511024/C47384-P81/C47384-P81.minimised.mol

>  <scratch_subdir>  (956) 
/opt/xchem-fragalysis-2/maxwin/BulkDock/SCRATCH/511024/C47384-P81

>  <fragmenstein_runtime>  (956) 
19.814815998077393

>  <fragmenstein_outcome>  (956) 
too moved

>  <fragmenstein_mode>  (956) 
expansion

>  <fragmenstein_error>  (956) 


$$$$
C47388-P123
     RDKit          3D

 38 39  0  0  0  0  0  0  0  0999 V2000
   -7.2361  -23.2160   26.1717 C   0  0  0  0  0  0  0  0  0  0  0  0
   -5.9042  -23.1687   25.7166 C   0  0  0  0  0  0  0  0  0  0  0  0
   -5.1108  -21.5595   25.3726 O   0  0  0  0  0  0  0  0  0  0  0  0
   -4.7695  -20.2048   25.4652 C   0  0  0  0  0  0  0  0  0  0  0  0
   -4.1170  -19.8985   24.5240 O   0  0  0  0  0  0  0  0  0  0  0  0
   -5.1955  -18.9123   27.1271 C   0  0  0  0  0  0  0  0  0  0  0  0
   -3.5876  -17.2603   26.8960 C   0  0  0  0  0  0  0  0  0  0  0  0
   -3.0470  -16.0739   25.0783 C   0  0  0  0  0  0  0  0  0  0  0  0
   -4.0131  -15.6034   24.5598 O   0  0  0  0  0  0  0  0  0  0  0  0
   -1.3872  -15.5534   24.3259 N   0  0  0  0  0  0  0  0  0  0  0  0
   -0.8497  -14.3459   22.9865 C   0  0  0  0  0  0  0  0  0  0  0  0
   -0.2265  -12.5017   22.2130 C   0  0  0  0  0  0  0  0  0  0  0  0
   -0.9142  -11.6870   21.0456 C   0  0  0  0  0  0  0  0  0  0  0  0
   -0.2348  -10.5135   20.8167 C   0  0  0  0  0  0  0  0  0  0  0  0
    0.7575  -10.4878   21.7256 N   0  0  0  0  0  0  0  0  0  0  0  0
    0.8460  -11.5838   22.5119 N   0  0  0  0  0  0  0  0  0  0  0  0
   -5.6690  -20.9952   27.4298 C   0  0  0  0  0  0  0  0  0  0  0  0
   -7.0873  -21.1709   27.7072 C   0  0  0  0  0  0  0  0  0  0  0  0
   -7.1008  -19.7867   27.2298 C   0  0  0  0  0  0  0  0  0  0  0  0
   -7.6380  -23.8212   25.3733 H   0  0  0  0  0  0  0  0  0  0  0  0
   -8.0972  -22.9505   26.7193 H   0  0  0  0  0  0  0  0  0  0  0  0
   -6.8661  -23.4193   27.1762 H   0  0  0  0  0  0  0  0  0  0  0  0
   -5.2954  -23.6183   26.5288 H   0  0  0  0  0  0  0  0  0  0  0  0
   -5.7593  -23.7017   24.7514 H   0  0  0  0  0  0  0  0  0  0  0  0
   -3.5433  -16.6708   27.8214 H   0  0  0  0  0  0  0  0  0  0  0  0
   -2.6221  -17.8363   26.9490 H   0  0  0  0  0  0  0  0  0  0  0  0
   -0.7600  -16.0113   24.7049 H   0  0  0  0  0  0  0  0  0  0  0  0
   -0.7363  -14.9830   22.0946 H   0  0  0  0  0  0  0  0  0  0  0  0
    0.0695  -14.1717   23.5504 H   0  0  0  0  0  0  0  0  0  0  0  0
   -1.7723  -12.0358   20.4847 H   0  0  0  0  0  0  0  0  0  0  0  0
   -0.3872   -9.7185   20.1011 H   0  0  0  0  0  0  0  0  0  0  0  0
    1.4532   -9.7617   21.8614 H   0  0  0  0  0  0  0  0  0  0  0  0
   -5.1834  -21.8822   27.0696 H   0  0  0  0  0  0  0  0  0  0  0  0
   -5.3098  -21.6403   28.2222 H   0  0  0  0  0  0  0  0  0  0  0  0
   -7.3620  -22.0802   28.2249 H   0  0  0  0  0  0  0  0  0  0  0  0
   -8.0218  -21.3701   27.2423 H   0  0  0  0  0  0  0  0  0  0  0  0
   -7.8861  -19.7409   28.1414 H   0  0  0  0  0  0  0  0  0  0  0  0
   -7.9655  -18.7566   27.7384 H   0  0  0  0  0  0  0  0  0  0  0  0
  1  2  1  0
  2  3  1  0
  3  4  1  0
  4  5  2  0
  4  6  1  0
  6  7  1  0
  7  8  1  0
  8  9  2  0
  8 10  1  0
 10 11  1  0
 11 12  1  0
 12 13  1  0
 13 14  2  0
 14 15  1  0
 15 16  1  0
  6 17  1  0
 17 18  1  0
 18 19  1  0
 19  6  1  0
 16 12  2  0
  1 20  1  0
  1 21  1  0
  1 22  1  0
  2 23  1  0
  2 24  1  0
  7 25  1  0
  7 26  1  0
 10 27  1  0
 11 28  1  0
 11 29  1  0
 13 30  1  0
 14 31  1  0
 15 32  1  0
 17 33  1  0
 17 34  1  0
 18 35  1  0
 18 36  1  0
 19 37  1  0
 19 38  1  0
M  END
>  <Energy>  (957) 
1384.0561747615966

>  <compound_id>  (957) 
47388

>  <target_id>  (957) 
1

>  <reference_id>  (957) 
123

>  <inspiration_ids>  (957) 
[123, 81]

>  <energy_score>  (957) 
1360.4052632951075

>  <distance_score>  (957) 
12.533461068822596

>  <path>  (957) 
/opt/xchem-fragalysis-2/maxwin/BulkDock/SCRATCH/511024/C47388-P123/C47388-P123.minimised.mol

>  <scratch_subdir>  (957) 
/opt/xchem-fragalysis-2/maxwin/BulkDock/SCRATCH/511024/C47388-P123

>  <fragmenstein_runtime>  (957) 
22.342410802841187

>  <fragmenstein_outcome>  (957) 
too moved

>  <fragmenstein_mode>  (957) 
expansion

>  <fragmenstein_error>  (957) 


$$$$
C47388-P81
     RDKit          3D

 38 39  0  0  0  0  0  0  0  0999 V2000
   -6.8501  -23.3346   26.0661 C   0  0  0  0  0  0  0  0  0  0  0  0
   -6.0892  -23.6488   24.5231 C   0  0  0  0  0  0  0  0  0  0  0  0
   -5.2683  -22.4152   24.0446 O   0  0  0  0  0  0  0  0  0  0  0  0
   -4.7155  -21.2326   25.3078 C   0  0  0  0  0  0  0  0  0  0  0  0
   -5.0438  -21.6490   26.4307 O   0  0  0  0  0  0  0  0  0  0  0  0
   -3.7646  -19.3073   24.7069 C   0  0  0  0  0  0  0  0  0  0  0  0
   -2.4481  -17.3818   24.8154 C   0  0  0  0  0  0  0  0  0  0  0  0
   -1.2979  -15.6844   23.6465 C   0  0  0  0  0  0  0  0  0  0  0  0
   -0.7353  -16.2284   22.2929 O   0  0  0  0  0  0  0  0  0  0  0  0
   -0.8080  -13.9172   23.8551 N   0  0  0  0  0  0  0  0  0  0  0  0
    0.1085  -12.5599   22.7077 C   0  0  0  0  0  0  0  0  0  0  0  0
    0.2132  -10.8308   22.1546 C   0  0  0  0  0  0  0  0  0  0  0  0
   -0.2247  -10.3084   20.8923 C   0  0  0  0  0  0  0  0  0  0  0  0
    0.4632   -9.1280   20.7083 C   0  0  0  0  0  0  0  0  0  0  0  0
    1.2596   -8.9850   21.8020 N   0  0  0  0  0  0  0  0  0  0  0  0
    1.1454   -9.9985   22.6835 N   0  0  0  0  0  0  0  0  0  0  0  0
   -5.7151  -18.9242   23.9886 C   0  0  0  0  0  0  0  0  0  0  0  0
   -5.6275  -19.5400   25.5333 C   0  0  0  0  0  0  0  0  0  0  0  0
   -4.4951  -20.6011   24.3215 C   0  0  0  0  0  0  0  0  0  0  0  0
   -7.6724  -23.9841   26.3421 H   0  0  0  0  0  0  0  0  0  0  0  0
   -7.4467  -22.5214   26.4205 H   0  0  0  0  0  0  0  0  0  0  0  0
   -6.0737  -23.2387   26.8278 H   0  0  0  0  0  0  0  0  0  0  0  0
   -5.3623  -24.4197   24.3453 H   0  0  0  0  0  0  0  0  0  0  0  0
   -6.8675  -23.8104   23.7568 H   0  0  0  0  0  0  0  0  0  0  0  0
   -1.7310  -17.8944   25.5120 H   0  0  0  0  0  0  0  0  0  0  0  0
   -2.9312  -16.7407   25.5559 H   0  0  0  0  0  0  0  0  0  0  0  0
   -1.1273  -13.6761   24.7847 H   0  0  0  0  0  0  0  0  0  0  0  0
   -0.2448  -12.6426   21.7017 H   0  0  0  0  0  0  0  0  0  0  0  0
    1.1282  -12.2212   23.1566 H   0  0  0  0  0  0  0  0  0  0  0  0
   -0.8918  -10.7840   20.1855 H   0  0  0  0  0  0  0  0  0  0  0  0
    0.4722   -8.4122   19.8986 H   0  0  0  0  0  0  0  0  0  0  0  0
    1.9173   -8.2399   22.0087 H   0  0  0  0  0  0  0  0  0  0  0  0
   -6.2172  -18.0074   23.6248 H   0  0  0  0  0  0  0  0  0  0  0  0
   -6.3171  -19.4242   23.1648 H   0  0  0  0  0  0  0  0  0  0  0  0
   -6.4780  -19.8523   26.1061 H   0  0  0  0  0  0  0  0  0  0  0  0
   -5.4019  -19.2129   26.5641 H   0  0  0  0  0  0  0  0  0  0  0  0
   -3.4829  -20.6323   23.7639 H   0  0  0  0  0  0  0  0  0  0  0  0
   -5.3349  -20.9273   23.4120 H   0  0  0  0  0  0  0  0  0  0  0  0
  1  2  1  0
  2  3  1  0
  3  4  1  0
  4  5  2  0
  4  6  1  0
  6  7  1  0
  7  8  1  0
  8  9  2  0
  8 10  1  0
 10 11  1  0
 11 12  1  0
 12 13  1  0
 13 14  2  0
 14 15  1  0
 15 16  1  0
  6 17  1  0
 17 18  1  0
 18 19  1  0
 19  6  1  0
 16 12  2  0
  1 20  1  0
  1 21  1  0
  1 22  1  0
  2 23  1  0
  2 24  1  0
  7 25  1  0
  7 26  1  0
 10 27  1  0
 11 28  1  0
 11 29  1  0
 13 30  1  0
 14 31  1  0
 15 32  1  0
 17 33  1  0
 17 34  1  0
 18 35  1  0
 18 36  1  0
 19 37  1  0
 19 38  1  0
M  END
>  <Energy>  (958) 
1660.9573959975096

>  <compound_id>  (958) 
47388

>  <target_id>  (958) 
1

>  <reference_id>  (958) 
81

>  <inspiration_ids>  (958) 
[123, 81]

>  <energy_score>  (958) 
1637.3064845310607

>  <distance_score>  (958) 
12.609416026808091

>  <path>  (958) 
/opt/xchem-fragalysis-2/maxwin/BulkDock/SCRATCH/511024/C47388-P81/C47388-P81.minimised.mol

>  <scratch_subdir>  (958) 
/opt/xchem-fragalysis-2/maxwin/BulkDock/SCRATCH/511024/C47388-P81

>  <fragmenstein_runtime>  (958) 
18.657925128936768

>  <fragmenstein_outcome>  (958) 
too moved

>  <fragmenstein_mode>  (958) 
expansion

>  <fragmenstein_error>  (958) 


$$$$
C47390-P123
     RDKit          3D

 35 36  0  0  0  0  0  0  0  0999 V2000
   -5.1879  -17.0034   19.2054 C   0  0  0  0  0  0  0  0  0  0  0  0
   -4.2596  -15.9127   18.6570 C   0  0  0  0  0  0  0  0  0  0  0  0
   -2.9304  -16.1336   19.1555 O   0  0  0  0  0  0  0  0  0  0  0  0
   -1.9259  -15.3106   18.6952 C   0  0  0  0  0  0  0  0  0  0  0  0
   -2.1603  -14.3036   18.0285 O   0  0  0  0  0  0  0  0  0  0  0  0
   -0.4852  -15.8915   19.0382 C   0  0  0  0  0  0  0  0  0  0  0  0
    0.3850  -14.6983   19.6947 C   0  0  0  0  0  0  0  0  0  0  0  0
    0.1924  -14.5614   20.8780 O   0  0  0  0  0  0  0  0  0  0  0  0
    1.3354  -14.0311   18.8021 N   0  0  0  0  0  0  0  0  0  0  0  0
    2.4113  -13.0634   19.0878 C   0  0  0  0  0  0  0  0  0  0  0  0
    2.9738  -12.1346   18.0162 C   0  0  0  0  0  0  0  0  0  0  0  0
    2.3393  -11.0589   17.3337 C   0  0  0  0  0  0  0  0  0  0  0  0
    3.3343  -10.4029   16.6409 C   0  0  0  0  0  0  0  0  0  0  0  0
    4.4803  -11.0836   16.9113 N   0  0  0  0  0  0  0  0  0  0  0  0
    4.2991  -12.1156   17.7578 N   0  0  0  0  0  0  0  0  0  0  0  0
    0.1481  -16.8008   17.9401 C   0  0  0  0  0  0  0  0  0  0  0  0
   -0.5313  -18.0286   18.5797 C   0  0  0  0  0  0  0  0  0  0  0  0
   -0.5194  -17.2564   19.8935 C   0  0  0  0  0  0  0  0  0  0  0  0
   -5.2592  -16.9293   20.2897 H   0  0  0  0  0  0  0  0  0  0  0  0
   -6.1912  -16.9015   18.7826 H   0  0  0  0  0  0  0  0  0  0  0  0
   -4.7963  -17.9972   18.9669 H   0  0  0  0  0  0  0  0  0  0  0  0
   -4.2455  -15.9613   17.5628 H   0  0  0  0  0  0  0  0  0  0  0  0
   -4.6103  -14.9256   18.9738 H   0  0  0  0  0  0  0  0  0  0  0  0
    1.2786  -14.4536   17.8836 H   0  0  0  0  0  0  0  0  0  0  0  0
    3.2316  -13.6673   19.4957 H   0  0  0  0  0  0  0  0  0  0  0  0
    2.0535  -12.4462   19.9212 H   0  0  0  0  0  0  0  0  0  0  0  0
    1.2936  -10.7853   17.3777 H   0  0  0  0  0  0  0  0  0  0  0  0
    3.3209   -9.5385   15.9928 H   0  0  0  0  0  0  0  0  0  0  0  0
    5.4159  -10.9110   16.5572 H   0  0  0  0  0  0  0  0  0  0  0  0
    1.2438  -16.8433   17.9707 H   0  0  0  0  0  0  0  0  0  0  0  0
   -0.1586  -16.5902   16.9113 H   0  0  0  0  0  0  0  0  0  0  0  0
   -1.5314  -18.2388   18.1852 H   0  0  0  0  0  0  0  0  0  0  0  0
    0.0522  -18.9527   18.5657 H   0  0  0  0  0  0  0  0  0  0  0  0
    0.3811  -17.4491   20.4735 H   0  0  0  0  0  0  0  0  0  0  0  0
   -1.3920  -17.4891   20.4924 H   0  0  0  0  0  0  0  0  0  0  0  0
  1  2  1  0
  2  3  1  0
  3  4  1  0
  4  5  2  0
  4  6  1  0
  6  7  1  0
  7  8  2  0
  7  9  1  0
  9 10  1  0
 10 11  1  0
 11 12  1  0
 12 13  2  0
 13 14  1  0
 14 15  1  0
  6 16  1  0
 16 17  1  0
 17 18  1  0
 18  6  1  0
 15 11  2  0
  1 19  1  0
  1 20  1  0
  1 21  1  0
  2 22  1  0
  2 23  1  0
  9 24  1  0
 10 25  1  0
 10 26  1  0
 12 27  1  0
 13 28  1  0
 14 29  1  0
 16 30  1  0
 16 31  1  0
 17 32  1  0
 17 33  1  0
 18 34  1  0
 18 35  1  0
M  END
>  <Energy>  (959) 
5.3067116511268839

>  <compound_id>  (959) 
47390

>  <target_id>  (959) 
1

>  <reference_id>  (959) 
123

>  <inspiration_ids>  (959) 
[123, 81]

>  <energy_score>  (959) 
-12.236846144335288

>  <distance_score>  (959) 
16.42608586762538

>  <path>  (959) 
/opt/xchem-fragalysis-2/maxwin/BulkDock/SCRATCH/511024/C47390-P123/C47390-P123.minimised.mol

>  <scratch_subdir>  (959) 
/opt/xchem-fragalysis-2/maxwin/BulkDock/SCRATCH/511024/C47390-P123

>  <fragmenstein_runtime>  (959) 
28.636316537857056

>  <fragmenstein_outcome>  (959) 
too moved

>  <fragmenstein_mode>  (959) 
expansion

>  <fragmenstein_error>  (959) 


$$$$
C47390-P81
     RDKit          3D

 35 36  0  0  0  0  0  0  0  0999 V2000
  -11.6063  -26.6264   27.7990 C   0  0  0  0  0  0  0  0  0  0  0  0
  -10.2583  -26.4627   27.1240 C   0  0  0  0  0  0  0  0  0  0  0  0
   -9.9044  -25.0749   27.0097 O   0  0  0  0  0  0  0  0  0  0  0  0
   -9.4940  -24.4702   28.1705 C   0  0  0  0  0  0  0  0  0  0  0  0
   -9.2417  -25.1490   29.1618 O   0  0  0  0  0  0  0  0  0  0  0  0
   -9.5335  -22.6707   27.9834 C   0  0  0  0  0  0  0  0  0  0  0  0
   -7.6518  -22.0718   27.2921 C   0  0  0  0  0  0  0  0  0  0  0  0
   -7.0079  -22.9772   26.7821 O   0  0  0  0  0  0  0  0  0  0  0  0
   -7.1218  -20.3572   27.3308 N   0  0  0  0  0  0  0  0  0  0  0  0
   -5.4602  -19.4840   26.7629 C   0  0  0  0  0  0  0  0  0  0  0  0
   -3.5725  -18.6005   27.2678 C   0  0  0  0  0  0  0  0  0  0  0  0
   -2.2981  -18.8503   26.2310 C   0  0  0  0  0  0  0  0  0  0  0  0
   -1.3697  -17.9618   26.5343 C   0  0  0  0  0  0  0  0  0  0  0  0
   -2.1384  -16.9617   27.0293 N   0  0  0  0  0  0  0  0  0  0  0  0
   -3.3734  -17.1901   27.3498 N   0  0  0  0  0  0  0  0  0  0  0  0
  -10.7595  -21.9018   29.1393 C   0  0  0  0  0  0  0  0  0  0  0  0
  -11.7263  -22.8965   28.5714 C   0  0  0  0  0  0  0  0  0  0  0  0
  -11.0745  -22.6264   27.1879 C   0  0  0  0  0  0  0  0  0  0  0  0
  -12.3775  -26.0655   27.2623 H   0  0  0  0  0  0  0  0  0  0  0  0
  -11.8940  -27.6799   27.8354 H   0  0  0  0  0  0  0  0  0  0  0  0
  -11.5879  -26.2509   28.8256 H   0  0  0  0  0  0  0  0  0  0  0  0
   -9.4730  -27.0201   27.6414 H   0  0  0  0  0  0  0  0  0  0  0  0
  -10.3271  -26.8597   26.1090 H   0  0  0  0  0  0  0  0  0  0  0  0
   -7.7791  -19.8168   27.8831 H   0  0  0  0  0  0  0  0  0  0  0  0
   -5.4215  -19.7246   25.6939 H   0  0  0  0  0  0  0  0  0  0  0  0
   -5.5171  -18.4622   27.1951 H   0  0  0  0  0  0  0  0  0  0  0  0
   -2.3849  -19.5603   25.4970 H   0  0  0  0  0  0  0  0  0  0  0  0
   -0.3171  -18.0032   26.4152 H   0  0  0  0  0  0  0  0  0  0  0  0
   -1.8625  -16.0274   27.3114 H   0  0  0  0  0  0  0  0  0  0  0  0
  -10.7797  -22.0047   30.2403 H   0  0  0  0  0  0  0  0  0  0  0  0
  -11.1712  -20.9290   29.0412 H   0  0  0  0  0  0  0  0  0  0  0  0
  -12.7462  -22.5857   28.7450 H   0  0  0  0  0  0  0  0  0  0  0  0
  -11.6570  -23.9066   28.9794 H   0  0  0  0  0  0  0  0  0  0  0  0
  -11.4045  -21.6898   26.7509 H   0  0  0  0  0  0  0  0  0  0  0  0
  -11.2882  -23.3970   26.4418 H   0  0  0  0  0  0  0  0  0  0  0  0
  1  2  1  0
  2  3  1  0
  3  4  1  0
  4  5  2  0
  4  6  1  0
  6  7  1  0
  7  8  2  0
  7  9  1  0
  9 10  1  0
 10 11  1  0
 11 12  1  0
 12 13  2  0
 13 14  1  0
 14 15  1  0
  6 16  1  0
 16 17  1  0
 17 18  1  0
 18  6  1  0
 15 11  2  0
  1 19  1  0
  1 20  1  0
  1 21  1  0
  2 22  1  0
  2 23  1  0
  9 24  1  0
 10 25  1  0
 10 26  1  0
 12 27  1  0
 13 28  1  0
 14 29  1  0
 16 30  1  0
 16 31  1  0
 17 32  1  0
 17 33  1  0
 18 34  1  0
 18 35  1  0
M  END
>  <Energy>  (960) 
454.64267590271231

>  <compound_id>  (960) 
47390

>  <target_id>  (960) 
1

>  <reference_id>  (960) 
81

>  <inspiration_ids>  (960) 
[123, 81]

>  <energy_score>  (960) 
437.0991181072285

>  <distance_score>  (960) 
15.85291531121725

>  <path>  (960) 
/opt/xchem-fragalysis-2/maxwin/BulkDock/SCRATCH/511024/C47390-P81/C47390-P81.minimised.mol

>  <scratch_subdir>  (960) 
/opt/xchem-fragalysis-2/maxwin/BulkDock/SCRATCH/511024/C47390-P81

>  <fragmenstein_runtime>  (960) 
24.078643798828125

>  <fragmenstein_outcome>  (960) 
too moved

>  <fragmenstein_mode>  (960) 
expansion

>  <fragmenstein_error>  (960) 


$$$$
C46480-P123
     RDKit          3D

 42 44  0  0  0  0  0  0  0  0999 V2000
   -1.6726  -18.1655   25.9874 C   0  0  0  0  0  0  0  0  0  0  0  0
   -2.5839  -16.6178   25.5253 C   0  0  0  0  0  0  0  0  0  0  0  0
   -2.0763  -16.0250   27.3393 C   0  0  0  0  0  0  0  0  0  0  0  0
   -3.8425  -17.4663   26.6073 C   0  0  0  0  0  0  0  0  0  0  0  0
   -3.6958  -17.9591   27.7246 O   0  0  0  0  0  0  0  0  0  0  0  0
   -5.0789  -17.6921   26.1314 O   0  0  0  0  0  0  0  0  0  0  0  0
   -1.9377  -15.4333   24.0124 N   0  0  0  0  0  0  0  0  0  0  0  0
   -0.9628  -15.0960   22.3722 C   0  0  0  0  0  0  0  0  0  0  0  0
   -1.6648  -15.6001   20.7656 C   0  0  0  0  0  0  0  0  0  0  0  0
   -2.2284  -14.5399   21.1931 C   0  0  0  0  0  0  0  0  0  0  0  0
   -2.5043  -13.5170   20.0862 N   0  0  0  0  0  0  0  0  0  0  0  0
   -2.4187  -12.0310   20.0888 C   0  0  0  0  0  0  0  0  0  0  0  0
   -2.1936  -11.2647   20.9842 O   0  0  0  0  0  0  0  0  0  0  0  0
   -2.5221  -11.3265   18.7183 C   0  0  0  0  0  0  0  0  0  0  0  0
   -2.6274   -9.9692   18.6995 N   0  0  0  0  0  0  0  0  0  0  0  0
   -2.0403   -9.5653   17.5676 N   0  0  0  0  0  0  0  0  0  0  0  0
   -1.8242  -10.5878   16.7020 C   0  0  0  0  0  0  0  0  0  0  0  0
   -2.1641  -11.7503   17.3838 C   0  0  0  0  0  0  0  0  0  0  0  0
   -1.9923  -13.0821   16.7440 C   0  0  0  0  0  0  0  0  0  0  0  0
   -1.9418  -12.9436   15.2060 C   0  0  0  0  0  0  0  0  0  0  0  0
   -0.9700  -11.8407   14.7391 C   0  0  0  0  0  0  0  0  0  0  0  0
   -1.3019  -10.4486   15.3173 C   0  0  0  0  0  0  0  0  0  0  0  0
   -2.9072  -14.9448   22.8743 N   0  0  0  0  0  0  0  0  0  0  0  0
   -0.5921  -18.1422   25.9946 H   0  0  0  0  0  0  0  0  0  0  0  0
   -2.0676  -19.0916   25.5783 H   0  0  0  0  0  0  0  0  0  0  0  0
   -1.7858  -18.4022   27.0519 H   0  0  0  0  0  0  0  0  0  0  0  0
   -2.8262  -16.0802   28.1521 H   0  0  0  0  0  0  0  0  0  0  0  0
   -1.8127  -14.9890   27.3284 H   0  0  0  0  0  0  0  0  0  0  0  0
   -1.3394  -16.6903   27.8095 H   0  0  0  0  0  0  0  0  0  0  0  0
   -5.5399  -18.1972   26.8366 H   0  0  0  0  0  0  0  0  0  0  0  0
   -0.1748  -15.8071   22.0019 H   0  0  0  0  0  0  0  0  0  0  0  0
   -1.1457  -16.1062   19.9577 H   0  0  0  0  0  0  0  0  0  0  0  0
   -2.6277  -13.8395   19.1416 H   0  0  0  0  0  0  0  0  0  0  0  0
   -1.8644   -8.5729   17.4514 H   0  0  0  0  0  0  0  0  0  0  0  0
   -1.0642  -13.5450   17.0953 H   0  0  0  0  0  0  0  0  0  0  0  0
   -2.8215  -13.7458   17.0101 H   0  0  0  0  0  0  0  0  0  0  0  0
   -2.9462  -12.7114   14.8284 H   0  0  0  0  0  0  0  0  0  0  0  0
   -1.6497  -13.9037   14.7655 H   0  0  0  0  0  0  0  0  0  0  0  0
    0.0467  -12.1283   15.0317 H   0  0  0  0  0  0  0  0  0  0  0  0
   -0.9683  -11.7855   13.6443 H   0  0  0  0  0  0  0  0  0  0  0  0
   -0.4171   -9.8043   15.2838 H   0  0  0  0  0  0  0  0  0  0  0  0
   -2.0753   -9.9796   14.6971 H   0  0  0  0  0  0  0  0  0  0  0  0
  1  2  1  0
  2  3  1  0
  2  4  1  0
  4  5  2  0
  4  6  1  0
  2  7  1  0
  7  8  1  0
  8  9  2  0
  9 10  1  0
 10 11  1  0
 11 12  1  0
 12 13  2  0
 12 14  1  0
 14 15  2  0
 15 16  1  0
 16 17  1  0
 17 18  2  0
 18 19  1  0
 19 20  1  0
 20 21  1  0
 21 22  1  0
 10 23  2  0
 23  7  1  0
 18 14  1  0
 22 17  1  0
  1 24  1  0
  1 25  1  0
  1 26  1  0
  3 27  1  0
  3 28  1  0
  3 29  1  0
  6 30  1  0
  8 31  1  0
  9 32  1  0
 11 33  1  0
 16 34  1  0
 19 35  1  0
 19 36  1  0
 20 37  1  0
 20 38  1  0
 21 39  1  0
 21 40  1  0
 22 41  1  0
 22 42  1  0
M  END
>  <Energy>  (961) 
878.96934317476928

>  <compound_id>  (961) 
46480

>  <target_id>  (961) 
1

>  <reference_id>  (961) 
123

>  <inspiration_ids>  (961) 
[123, 81]

>  <energy_score>  (961) 
812.318389955436

>  <distance_score>  (961) 
17.096339916509095

>  <path>  (961) 
/opt/xchem-fragalysis-2/maxwin/BulkDock/SCRATCH/511024/C46480-P123/C46480-P123.minimised.mol

>  <scratch_subdir>  (961) 
/opt/xchem-fragalysis-2/maxwin/BulkDock/SCRATCH/511024/C46480-P123

>  <fragmenstein_runtime>  (961) 
23.707496881484985

>  <fragmenstein_outcome>  (961) 
too moved

>  <fragmenstein_mode>  (961) 
expansion

>  <fragmenstein_error>  (961) 


$$$$
C46480-P81
     RDKit          3D

 42 44  0  0  0  0  0  0  0  0999 V2000
    4.0595  -15.8602   32.3083 C   0  0  0  0  0  0  0  0  0  0  0  0
    3.0050  -15.0307   31.5525 C   0  0  0  0  0  0  0  0  0  0  0  0
    2.6880  -13.7532   32.3587 C   0  0  0  0  0  0  0  0  0  0  0  0
    1.7074  -15.8357   31.4477 C   0  0  0  0  0  0  0  0  0  0  0  0
    1.0550  -16.0869   30.4471 O   0  0  0  0  0  0  0  0  0  0  0  0
    1.2586  -16.2902   32.6411 O   0  0  0  0  0  0  0  0  0  0  0  0
    3.5520  -14.7084   30.2162 N   0  0  0  0  0  0  0  0  0  0  0  0
    3.6716  -15.5493   29.1428 C   0  0  0  0  0  0  0  0  0  0  0  0
    4.5188  -14.9126   28.2610 C   0  0  0  0  0  0  0  0  0  0  0  0
    4.8677  -13.6638   28.8508 C   0  0  0  0  0  0  0  0  0  0  0  0
    5.7050  -12.6763   28.3320 N   0  0  0  0  0  0  0  0  0  0  0  0
    6.5565  -12.6728   27.1590 C   0  0  0  0  0  0  0  0  0  0  0  0
    6.8173  -13.5457   26.3817 O   0  0  0  0  0  0  0  0  0  0  0  0
    7.1519  -11.2994   26.8074 C   0  0  0  0  0  0  0  0  0  0  0  0
    6.7219  -10.1262   27.3360 N   0  0  0  0  0  0  0  0  0  0  0  0
    7.3951   -9.1577   26.6538 N   0  0  0  0  0  0  0  0  0  0  0  0
    8.2285   -9.6411   25.6979 C   0  0  0  0  0  0  0  0  0  0  0  0
    8.1452  -11.0143   25.7890 C   0  0  0  0  0  0  0  0  0  0  0  0
    9.0040  -11.9048   24.9574 C   0  0  0  0  0  0  0  0  0  0  0  0
    9.5869  -11.1428   23.7487 C   0  0  0  0  0  0  0  0  0  0  0  0
   10.1445   -9.7603   24.1411 C   0  0  0  0  0  0  0  0  0  0  0  0
    9.0659   -8.8475   24.7539 C   0  0  0  0  0  0  0  0  0  0  0  0
    4.2114  -13.5257   30.0140 N   0  0  0  0  0  0  0  0  0  0  0  0
    3.7497  -16.0686   33.3386 H   0  0  0  0  0  0  0  0  0  0  0  0
    5.0221  -15.3371   32.3522 H   0  0  0  0  0  0  0  0  0  0  0  0
    4.2298  -16.8273   31.8200 H   0  0  0  0  0  0  0  0  0  0  0  0
    1.9600  -13.1218   31.8370 H   0  0  0  0  0  0  0  0  0  0  0  0
    3.5865  -13.1513   32.5374 H   0  0  0  0  0  0  0  0  0  0  0  0
    2.2617  -13.9918   33.3400 H   0  0  0  0  0  0  0  0  0  0  0  0
    0.4189  -16.7525   32.4258 H   0  0  0  0  0  0  0  0  0  0  0  0
    3.2024  -16.5229   29.1050 H   0  0  0  0  0  0  0  0  0  0  0  0
    4.8635  -15.2984   27.3112 H   0  0  0  0  0  0  0  0  0  0  0  0
    5.7837  -11.7818   28.8004 H   0  0  0  0  0  0  0  0  0  0  0  0
    7.2264   -8.1881   26.9033 H   0  0  0  0  0  0  0  0  0  0  0  0
    9.8272  -12.2751   25.5806 H   0  0  0  0  0  0  0  0  0  0  0  0
    8.4542  -12.7732   24.5996 H   0  0  0  0  0  0  0  0  0  0  0  0
    8.8036  -11.0072   22.9915 H   0  0  0  0  0  0  0  0  0  0  0  0
   10.3774  -11.7452   23.2870 H   0  0  0  0  0  0  0  0  0  0  0  0
   10.9566   -9.9010   24.8662 H   0  0  0  0  0  0  0  0  0  0  0  0
   10.5817   -9.2701   23.2639 H   0  0  0  0  0  0  0  0  0  0  0  0
    9.5368   -7.9993   25.2620 H   0  0  0  0  0  0  0  0  0  0  0  0
    8.4254   -8.4500   23.9579 H   0  0  0  0  0  0  0  0  0  0  0  0
  1  2  1  0
  2  3  1  0
  2  4  1  0
  4  5  2  0
  4  6  1  0
  2  7  1  0
  7  8  1  0
  8  9  2  0
  9 10  1  0
 10 11  1  0
 11 12  1  0
 12 13  2  0
 12 14  1  0
 14 15  2  0
 15 16  1  0
 16 17  1  0
 17 18  2  0
 18 19  1  0
 19 20  1  0
 20 21  1  0
 21 22  1  0
 10 23  2  0
 23  7  1  0
 18 14  1  0
 22 17  1  0
  1 24  1  0
  1 25  1  0
  1 26  1  0
  3 27  1  0
  3 28  1  0
  3 29  1  0
  6 30  1  0
  8 31  1  0
  9 32  1  0
 11 33  1  0
 16 34  1  0
 19 35  1  0
 19 36  1  0
 20 37  1  0
 20 38  1  0
 21 39  1  0
 21 40  1  0
 22 41  1  0
 22 42  1  0
M  END
>  <Energy>  (962) 
12.210278770099613

>  <compound_id>  (962) 
46480

>  <target_id>  (962) 
1

>  <reference_id>  (962) 
81

>  <inspiration_ids>  (962) 
[123, 81]

>  <energy_score>  (962) 
-54.44067444922405

>  <distance_score>  (962) 
16.905888111261767

>  <path>  (962) 
/opt/xchem-fragalysis-2/maxwin/BulkDock/SCRATCH/511024/C46480-P81/C46480-P81.minimised.mol

>  <scratch_subdir>  (962) 
/opt/xchem-fragalysis-2/maxwin/BulkDock/SCRATCH/511024/C46480-P81

>  <fragmenstein_runtime>  (962) 
22.088073253631592

>  <fragmenstein_outcome>  (962) 
too moved

>  <fragmenstein_mode>  (962) 
expansion

>  <fragmenstein_error>  (962) 


$$$$
C28362-P123
     RDKit          3D

 43 44  0  0  0  0  0  0  0  0999 V2000
   -1.1381  -16.1394   28.6292 C   0  0  0  0  0  0  0  0  0  0  0  0
   -2.0628  -15.8169   27.3238 C   0  0  0  0  0  0  0  0  0  0  0  0
   -1.8724  -14.6477   25.6424 C   0  0  0  0  0  0  0  0  0  0  0  0
   -0.2814  -14.4219   24.2925 C   0  0  0  0  0  0  0  0  0  0  0  0
    1.3689  -13.4207   23.8561 N   0  0  0  0  0  0  0  0  0  0  0  0
    2.8259  -13.9057   23.3625 C   0  0  0  0  0  0  0  0  0  0  0  0
    3.2780  -15.0120   23.2396 O   0  0  0  0  0  0  0  0  0  0  0  0
    3.6484  -12.3137   22.8500 C   0  0  0  0  0  0  0  0  0  0  0  0
    4.6578  -11.3270   21.8789 O   0  0  0  0  0  0  0  0  0  0  0  0
    6.1427  -11.5153   21.2769 C   0  0  0  0  0  0  0  0  0  0  0  0
    6.6528  -11.3645   19.9825 C   0  0  0  0  0  0  0  0  0  0  0  0
    7.9339  -10.9063   19.9881 N   0  0  0  0  0  0  0  0  0  0  0  0
    8.3679  -11.2160   21.2112 N   0  0  0  0  0  0  0  0  0  0  0  0
    9.7635  -11.0773   21.5430 C   0  0  0  0  0  0  0  0  0  0  0  0
    7.3222  -11.4121   22.0606 C   0  0  0  0  0  0  0  0  0  0  0  0
   -2.5200  -17.2614   27.4382 N   0  0  0  0  0  0  0  0  0  0  0  0
   -3.2212  -17.9614   28.5216 C   0  0  0  0  0  0  0  0  0  0  0  0
   -3.6820  -17.5461   29.5484 O   0  0  0  0  0  0  0  0  0  0  0  0
   -3.3022  -19.4443   28.4230 C   0  0  0  0  0  0  0  0  0  0  0  0
   -3.2128  -20.4386   27.4229 C   0  0  0  0  0  0  0  0  0  0  0  0
   -3.1198  -21.6896   27.9014 N   0  0  0  0  0  0  0  0  0  0  0  0
   -3.1241  -21.5050   29.2258 N   0  0  0  0  0  0  0  0  0  0  0  0
   -3.3127  -20.2141   29.5844 C   0  0  0  0  0  0  0  0  0  0  0  0
   -0.5723  -17.0841   28.5415 H   0  0  0  0  0  0  0  0  0  0  0  0
   -1.7617  -16.2389   29.5295 H   0  0  0  0  0  0  0  0  0  0  0  0
   -0.4322  -15.4361   28.9748 H   0  0  0  0  0  0  0  0  0  0  0  0
   -2.6336  -15.1775   27.9689 H   0  0  0  0  0  0  0  0  0  0  0  0
   -2.3854  -13.6864   25.6312 H   0  0  0  0  0  0  0  0  0  0  0  0
   -1.3437  -14.4494   26.5165 H   0  0  0  0  0  0  0  0  0  0  0  0
   -0.5215  -13.8802   23.4013 H   0  0  0  0  0  0  0  0  0  0  0  0
   -1.0392  -14.9216   23.6277 H   0  0  0  0  0  0  0  0  0  0  0  0
    1.3501  -12.3836   23.9263 H   0  0  0  0  0  0  0  0  0  0  0  0
    2.8819  -11.6334   23.1389 H   0  0  0  0  0  0  0  0  0  0  0  0
    3.4219  -12.7161   21.8590 H   0  0  0  0  0  0  0  0  0  0  0  0
    6.1152  -11.3649   19.0494 H   0  0  0  0  0  0  0  0  0  0  0  0
   10.3359  -11.7537   20.9035 H   0  0  0  0  0  0  0  0  0  0  0  0
   10.0615  -10.0402   21.3695 H   0  0  0  0  0  0  0  0  0  0  0  0
    9.9133  -11.3419   22.5925 H   0  0  0  0  0  0  0  0  0  0  0  0
    7.4567  -11.3731   23.1345 H   0  0  0  0  0  0  0  0  0  0  0  0
   -2.3430  -17.9144   26.6816 H   0  0  0  0  0  0  0  0  0  0  0  0
   -3.1609  -20.3217   26.3501 H   0  0  0  0  0  0  0  0  0  0  0  0
   -3.0226  -22.3119   29.8310 H   0  0  0  0  0  0  0  0  0  0  0  0
   -3.3702  -19.9176   30.6231 H   0  0  0  0  0  0  0  0  0  0  0  0
  1  2  1  0
  2  3  1  0
  3  4  1  0
  4  5  1  0
  5  6  1  0
  6  7  2  0
  6  8  1  0
  8  9  1  0
  9 10  1  0
 10 11  1  0
 11 12  2  0
 12 13  1  0
 13 14  1  0
 13 15  1  0
  2 16  1  0
 16 17  1  0
 17 18  2  0
 17 19  1  0
 19 20  1  0
 20 21  2  0
 21 22  1  0
 22 23  1  0
 15 10  2  0
 23 19  2  0
  1 24  1  0
  1 25  1  0
  1 26  1  0
  2 27  1  0
  3 28  1  0
  3 29  1  0
  4 30  1  0
  4 31  1  0
  5 32  1  0
  8 33  1  0
  8 34  1  0
 11 35  1  0
 14 36  1  0
 14 37  1  0
 14 38  1  0
 15 39  1  0
 16 40  1  0
 20 41  1  0
 22 42  1  0
 23 43  1  0
M  END
>  <Energy>  (963) 
620.09789903408284

>  <compound_id>  (963) 
28362

>  <target_id>  (963) 
1

>  <reference_id>  (963) 
123

>  <inspiration_ids>  (963) 
[123, 81]

>  <energy_score>  (963) 
576.7048002860163

>  <distance_score>  (963) 
11.565159430951434

>  <path>  (963) 
/opt/xchem-fragalysis-2/maxwin/BulkDock/SCRATCH/511024/C28362-P123/C28362-P123.minimised.mol

>  <scratch_subdir>  (963) 
/opt/xchem-fragalysis-2/maxwin/BulkDock/SCRATCH/511024/C28362-P123

>  <fragmenstein_runtime>  (963) 
35.04081845283508

>  <fragmenstein_outcome>  (963) 
too moved

>  <fragmenstein_mode>  (963) 
expansion

>  <fragmenstein_error>  (963) 


$$$$
C28362-P81
     RDKit          3D

 43 44  0  0  0  0  0  0  0  0999 V2000
    7.6160  -16.7142   18.0939 C   0  0  0  0  0  0  0  0  0  0  0  0
    8.7140  -16.7497   19.1647 C   0  0  0  0  0  0  0  0  0  0  0  0
    9.2571  -15.2630   19.3953 C   0  0  0  0  0  0  0  0  0  0  0  0
   10.6481  -14.8864   18.7246 C   0  0  0  0  0  0  0  0  0  0  0  0
   10.8268  -13.8562   17.6427 N   0  0  0  0  0  0  0  0  0  0  0  0
   11.5271  -12.5439   17.6551 C   0  0  0  0  0  0  0  0  0  0  0  0
   12.0537  -11.9465   18.5584 O   0  0  0  0  0  0  0  0  0  0  0  0
   11.6920  -11.8689   16.1572 C   0  0  0  0  0  0  0  0  0  0  0  0
   11.3217  -10.5174   15.8562 O   0  0  0  0  0  0  0  0  0  0  0  0
   12.3079   -9.5570   15.6155 C   0  0  0  0  0  0  0  0  0  0  0  0
   13.7895   -9.5789   14.6296 C   0  0  0  0  0  0  0  0  0  0  0  0
   14.5188   -8.0909   14.6818 N   0  0  0  0  0  0  0  0  0  0  0  0
   13.3132   -6.9542   15.5289 N   0  0  0  0  0  0  0  0  0  0  0  0
   13.5970   -5.4935   16.1052 C   0  0  0  0  0  0  0  0  0  0  0  0
   12.1542   -7.7295   15.9991 C   0  0  0  0  0  0  0  0  0  0  0  0
    8.0936  -17.5415   20.2835 N   0  0  0  0  0  0  0  0  0  0  0  0
    8.6966  -18.2756   21.3767 C   0  0  0  0  0  0  0  0  0  0  0  0
    9.8404  -18.3719   21.7127 O   0  0  0  0  0  0  0  0  0  0  0  0
    7.7000  -19.1279   22.1390 C   0  0  0  0  0  0  0  0  0  0  0  0
    7.8186  -19.6715   23.4643 C   0  0  0  0  0  0  0  0  0  0  0  0
    6.8060  -20.4678   23.8454 N   0  0  0  0  0  0  0  0  0  0  0  0
    5.9940  -20.4421   22.7753 N   0  0  0  0  0  0  0  0  0  0  0  0
    6.4891  -19.6771   21.7451 C   0  0  0  0  0  0  0  0  0  0  0  0
    7.9355  -16.1203   17.2308 H   0  0  0  0  0  0  0  0  0  0  0  0
    7.4475  -17.7286   17.7330 H   0  0  0  0  0  0  0  0  0  0  0  0
    6.6855  -16.2870   18.4786 H   0  0  0  0  0  0  0  0  0  0  0  0
    9.5524  -17.3637   18.8176 H   0  0  0  0  0  0  0  0  0  0  0  0
    8.5050  -14.5241   19.0973 H   0  0  0  0  0  0  0  0  0  0  0  0
    9.4027  -15.1518   20.4770 H   0  0  0  0  0  0  0  0  0  0  0  0
   11.3035  -14.5434   19.5347 H   0  0  0  0  0  0  0  0  0  0  0  0
   11.1058  -15.7959   18.3212 H   0  0  0  0  0  0  0  0  0  0  0  0
   10.5786  -14.0911   16.6901 H   0  0  0  0  0  0  0  0  0  0  0  0
   12.7412  -12.0414   15.8828 H   0  0  0  0  0  0  0  0  0  0  0  0
   11.1002  -12.4884   15.4738 H   0  0  0  0  0  0  0  0  0  0  0  0
   14.2918  -10.4178   14.1683 H   0  0  0  0  0  0  0  0  0  0  0  0
   13.4920   -5.5245   17.1935 H   0  0  0  0  0  0  0  0  0  0  0  0
   14.6094   -5.2045   15.8074 H   0  0  0  0  0  0  0  0  0  0  0  0
   12.8252   -4.7990   15.7667 H   0  0  0  0  0  0  0  0  0  0  0  0
   11.2993   -7.0809   16.0068 H   0  0  0  0  0  0  0  0  0  0  0  0
    7.1008  -17.7551   20.2488 H   0  0  0  0  0  0  0  0  0  0  0  0
    8.6426  -19.5168   24.1503 H   0  0  0  0  0  0  0  0  0  0  0  0
    5.0946  -20.9075   22.8258 H   0  0  0  0  0  0  0  0  0  0  0  0
    5.9224  -19.6049   20.8401 H   0  0  0  0  0  0  0  0  0  0  0  0
  1  2  1  0
  2  3  1  0
  3  4  1  0
  4  5  1  0
  5  6  1  0
  6  7  2  0
  6  8  1  0
  8  9  1  0
  9 10  1  0
 10 11  1  0
 11 12  2  0
 12 13  1  0
 13 14  1  0
 13 15  1  0
  2 16  1  0
 16 17  1  0
 17 18  2  0
 17 19  1  0
 19 20  1  0
 20 21  2  0
 21 22  1  0
 22 23  1  0
 15 10  2  0
 23 19  2  0
  1 24  1  0
  1 25  1  0
  1 26  1  0
  2 27  1  0
  3 28  1  0
  3 29  1  0
  4 30  1  0
  4 31  1  0
  5 32  1  0
  8 33  1  0
  8 34  1  0
 11 35  1  0
 14 36  1  0
 14 37  1  0
 14 38  1  0
 15 39  1  0
 16 40  1  0
 20 41  1  0
 22 42  1  0
 23 43  1  0
M  END
>  <Energy>  (964) 
301.69082061178472

>  <compound_id>  (964) 
28362

>  <target_id>  (964) 
1

>  <reference_id>  (964) 
81

>  <inspiration_ids>  (964) 
[123, 81]

>  <energy_score>  (964) 
258.2977218637028

>  <distance_score>  (964) 
18.245914166336572

>  <path>  (964) 
/opt/xchem-fragalysis-2/maxwin/BulkDock/SCRATCH/511024/C28362-P81/C28362-P81.minimised.mol

>  <scratch_subdir>  (964) 
/opt/xchem-fragalysis-2/maxwin/BulkDock/SCRATCH/511024/C28362-P81

>  <fragmenstein_runtime>  (964) 
41.89924383163452

>  <fragmenstein_outcome>  (964) 
too moved

>  <fragmenstein_mode>  (964) 
expansion

>  <fragmenstein_error>  (964) 


$$$$
C28363-P123
     RDKit          3D

 45 46  0  0  0  0  0  0  0  0999 V2000
    3.3959  -19.1922   28.6388 C   0  0  0  0  0  0  0  0  0  0  0  0
    2.3919  -18.1210   28.2400 C   0  0  0  0  0  0  0  0  0  0  0  0
    2.1819  -17.1305   29.2872 N   0  0  0  0  0  0  0  0  0  0  0  0
    2.8508  -15.7828   29.1701 C   0  0  0  0  0  0  0  0  0  0  0  0
    4.3990  -15.7626   28.7781 C   0  0  0  0  0  0  0  0  0  0  0  0
    4.9593  -14.5162   28.1746 N   0  0  0  0  0  0  0  0  0  0  0  0
    6.3777  -14.0789   27.9716 C   0  0  0  0  0  0  0  0  0  0  0  0
    7.4075  -14.5884   28.3168 O   0  0  0  0  0  0  0  0  0  0  0  0
    6.3890  -12.7523   27.1775 C   0  0  0  0  0  0  0  0  0  0  0  0
    7.5910  -12.0726   26.6236 N   0  0  0  0  0  0  0  0  0  0  0  0
    8.6275  -12.6104   25.9047 C   0  0  0  0  0  0  0  0  0  0  0  0
    9.2370  -11.5761   25.2256 C   0  0  0  0  0  0  0  0  0  0  0  0
    8.4994  -10.4365   25.5755 C   0  0  0  0  0  0  0  0  0  0  0  0
    7.5019  -10.7202   26.4188 N   0  0  0  0  0  0  0  0  0  0  0  0
    1.3523  -17.5202   30.3505 C   0  0  0  0  0  0  0  0  0  0  0  0
    1.8441  -18.0665   31.3405 O   0  0  0  0  0  0  0  0  0  0  0  0
   -0.1960  -17.3742   30.2356 C   0  0  0  0  0  0  0  0  0  0  0  0
   -0.9568  -18.7284   30.0295 C   0  0  0  0  0  0  0  0  0  0  0  0
   -2.1962  -19.0500   30.8516 C   0  0  0  0  0  0  0  0  0  0  0  0
   -2.4513  -20.2740   31.5363 C   0  0  0  0  0  0  0  0  0  0  0  0
   -3.6656  -20.3421   32.0837 N   0  0  0  0  0  0  0  0  0  0  0  0
   -4.2090  -19.1462   31.7999 N   0  0  0  0  0  0  0  0  0  0  0  0
   -3.3722  -18.3496   31.0498 C   0  0  0  0  0  0  0  0  0  0  0  0
    3.0390  -19.7691   29.4979 H   0  0  0  0  0  0  0  0  0  0  0  0
    3.5551  -19.8881   27.8093 H   0  0  0  0  0  0  0  0  0  0  0  0
    4.3615  -18.7557   28.9108 H   0  0  0  0  0  0  0  0  0  0  0  0
    2.7147  -17.6178   27.3257 H   0  0  0  0  0  0  0  0  0  0  0  0
    1.4313  -18.6041   28.0268 H   0  0  0  0  0  0  0  0  0  0  0  0
    2.7159  -15.2564   30.1218 H   0  0  0  0  0  0  0  0  0  0  0  0
    2.2797  -15.2266   28.4215 H   0  0  0  0  0  0  0  0  0  0  0  0
    4.6014  -16.5339   28.0297 H   0  0  0  0  0  0  0  0  0  0  0  0
    5.0072  -16.0093   29.6548 H   0  0  0  0  0  0  0  0  0  0  0  0
    4.3395  -13.8847   27.6743 H   0  0  0  0  0  0  0  0  0  0  0  0
    5.8987  -11.9997   27.8041 H   0  0  0  0  0  0  0  0  0  0  0  0
    5.8308  -12.9619   26.2681 H   0  0  0  0  0  0  0  0  0  0  0  0
    8.8306  -13.6736   25.9184 H   0  0  0  0  0  0  0  0  0  0  0  0
   10.0836  -11.6569   24.5588 H   0  0  0  0  0  0  0  0  0  0  0  0
    8.6353   -9.4128   25.2559 H   0  0  0  0  0  0  0  0  0  0  0  0
   -0.5350  -16.8783   31.1525 H   0  0  0  0  0  0  0  0  0  0  0  0
   -0.4204  -16.6987   29.4029 H   0  0  0  0  0  0  0  0  0  0  0  0
   -0.2430  -19.5507   30.1729 H   0  0  0  0  0  0  0  0  0  0  0  0
   -1.2525  -18.7822   28.9728 H   0  0  0  0  0  0  0  0  0  0  0  0
   -1.7911  -21.1272   31.6335 H   0  0  0  0  0  0  0  0  0  0  0  0
   -5.1665  -18.9628   32.1010 H   0  0  0  0  0  0  0  0  0  0  0  0
   -3.7053  -17.3775   30.7147 H   0  0  0  0  0  0  0  0  0  0  0  0
  1  2  1  0
  2  3  1  0
  3  4  1  0
  4  5  1  0
  5  6  1  0
  6  7  1  0
  7  8  2  0
  7  9  1  0
  9 10  1  0
 10 11  1  0
 11 12  2  0
 12 13  1  0
 13 14  2  0
  3 15  1  0
 15 16  2  0
 15 17  1  0
 17 18  1  0
 18 19  1  0
 19 20  1  0
 20 21  2  0
 21 22  1  0
 22 23  1  0
 14 10  1  0
 23 19  2  0
  1 24  1  0
  1 25  1  0
  1 26  1  0
  2 27  1  0
  2 28  1  0
  4 29  1  0
  4 30  1  0
  5 31  1  0
  5 32  1  0
  6 33  1  0
  9 34  1  0
  9 35  1  0
 11 36  1  0
 12 37  1  0
 13 38  1  0
 17 39  1  0
 17 40  1  0
 18 41  1  0
 18 42  1  0
 20 43  1  0
 22 44  1  0
 23 45  1  0
M  END
>  <Energy>  (965) 
66.832618987133287

>  <compound_id>  (965) 
28363

>  <target_id>  (965) 
1

>  <reference_id>  (965) 
123

>  <inspiration_ids>  (965) 
[123, 81]

>  <energy_score>  (965) 
23.944298570691558

>  <distance_score>  (965) 
13.33432337138929

>  <path>  (965) 
/opt/xchem-fragalysis-2/maxwin/BulkDock/SCRATCH/511024/C28363-P123/C28363-P123.minimised.mol

>  <scratch_subdir>  (965) 
/opt/xchem-fragalysis-2/maxwin/BulkDock/SCRATCH/511024/C28363-P123

>  <fragmenstein_runtime>  (965) 
32.99696445465088

>  <fragmenstein_outcome>  (965) 
too moved

>  <fragmenstein_mode>  (965) 
expansion

>  <fragmenstein_error>  (965) 


$$$$
C28363-P81
     RDKit          3D

 45 46  0  0  0  0  0  0  0  0999 V2000
   -7.6340  -10.8321   21.2266 C   0  0  0  0  0  0  0  0  0  0  0  0
   -8.6229  -11.8037   20.6062 C   0  0  0  0  0  0  0  0  0  0  0  0
   -7.9694  -12.8985   19.9017 N   0  0  0  0  0  0  0  0  0  0  0  0
   -7.5832  -12.7733   18.4717 C   0  0  0  0  0  0  0  0  0  0  0  0
   -7.4320  -11.3613   17.7945 C   0  0  0  0  0  0  0  0  0  0  0  0
   -6.1222  -10.6895   17.6783 N   0  0  0  0  0  0  0  0  0  0  0  0
   -5.5441   -9.8866   16.5846 C   0  0  0  0  0  0  0  0  0  0  0  0
   -5.9641   -9.6474   15.4856 O   0  0  0  0  0  0  0  0  0  0  0  0
   -4.2129   -9.1986   17.0166 C   0  0  0  0  0  0  0  0  0  0  0  0
   -3.4866   -8.4508   15.9516 N   0  0  0  0  0  0  0  0  0  0  0  0
   -3.8352   -7.2598   15.3602 C   0  0  0  0  0  0  0  0  0  0  0  0
   -2.8196   -6.9190   14.4905 C   0  0  0  0  0  0  0  0  0  0  0  0
   -1.8672   -7.9336   14.6462 C   0  0  0  0  0  0  0  0  0  0  0  0
   -2.2354   -8.8314   15.5701 N   0  0  0  0  0  0  0  0  0  0  0  0
   -7.7244  -14.0636   20.6305 C   0  0  0  0  0  0  0  0  0  0  0  0
   -6.6637  -14.1900   21.2388 O   0  0  0  0  0  0  0  0  0  0  0  0
   -8.8306  -15.1331   20.7632 C   0  0  0  0  0  0  0  0  0  0  0  0
   -8.6086  -16.0102   22.0424 C   0  0  0  0  0  0  0  0  0  0  0  0
   -9.5667  -17.1426   22.2798 C   0  0  0  0  0  0  0  0  0  0  0  0
  -10.7338  -17.1473   23.0798 C   0  0  0  0  0  0  0  0  0  0  0  0
  -11.3006  -18.3566   23.1608 N   0  0  0  0  0  0  0  0  0  0  0  0
  -10.5539  -19.1194   22.3370 N   0  0  0  0  0  0  0  0  0  0  0  0
   -9.4682  -18.4515   21.8478 C   0  0  0  0  0  0  0  0  0  0  0  0
   -8.1665  -10.0116   21.7173 H   0  0  0  0  0  0  0  0  0  0  0  0
   -7.0218  -11.3344   21.9812 H   0  0  0  0  0  0  0  0  0  0  0  0
   -6.9592  -10.4040   20.4810 H   0  0  0  0  0  0  0  0  0  0  0  0
   -9.3152  -11.2991   19.9257 H   0  0  0  0  0  0  0  0  0  0  0  0
   -9.2304  -12.2282   21.4151 H   0  0  0  0  0  0  0  0  0  0  0  0
   -6.6844  -13.3681   18.3049 H   0  0  0  0  0  0  0  0  0  0  0  0
   -8.3948  -13.2901   17.9429 H   0  0  0  0  0  0  0  0  0  0  0  0
   -8.1074  -10.6288   18.2432 H   0  0  0  0  0  0  0  0  0  0  0  0
   -7.7672  -11.4740   16.7556 H   0  0  0  0  0  0  0  0  0  0  0  0
   -5.4522  -10.7445   18.4416 H   0  0  0  0  0  0  0  0  0  0  0  0
   -4.4305   -8.4630   17.7983 H   0  0  0  0  0  0  0  0  0  0  0  0
   -3.5228   -9.9523   17.4082 H   0  0  0  0  0  0  0  0  0  0  0  0
   -4.7787   -6.7824   15.5847 H   0  0  0  0  0  0  0  0  0  0  0  0
   -2.7815   -6.0569   13.8405 H   0  0  0  0  0  0  0  0  0  0  0  0
   -0.9151   -8.0445   14.1449 H   0  0  0  0  0  0  0  0  0  0  0  0
   -9.8081  -14.6423   20.8120 H   0  0  0  0  0  0  0  0  0  0  0  0
   -8.8026  -15.7610   19.8662 H   0  0  0  0  0  0  0  0  0  0  0  0
   -8.6230  -15.3492   22.9195 H   0  0  0  0  0  0  0  0  0  0  0  0
   -7.5948  -16.4321   22.0075 H   0  0  0  0  0  0  0  0  0  0  0  0
  -11.1714  -16.3243   23.6318 H   0  0  0  0  0  0  0  0  0  0  0  0
  -10.8154  -20.0922   22.1931 H   0  0  0  0  0  0  0  0  0  0  0  0
   -8.7390  -18.9558   21.2288 H   0  0  0  0  0  0  0  0  0  0  0  0
  1  2  1  0
  2  3  1  0
  3  4  1  0
  4  5  1  0
  5  6  1  0
  6  7  1  0
  7  8  2  0
  7  9  1  0
  9 10  1  0
 10 11  1  0
 11 12  2  0
 12 13  1  0
 13 14  2  0
  3 15  1  0
 15 16  2  0
 15 17  1  0
 17 18  1  0
 18 19  1  0
 19 20  1  0
 20 21  2  0
 21 22  1  0
 22 23  1  0
 14 10  1  0
 23 19  2  0
  1 24  1  0
  1 25  1  0
  1 26  1  0
  2 27  1  0
  2 28  1  0
  4 29  1  0
  4 30  1  0
  5 31  1  0
  5 32  1  0
  6 33  1  0
  9 34  1  0
  9 35  1  0
 11 36  1  0
 12 37  1  0
 13 38  1  0
 17 39  1  0
 17 40  1  0
 18 41  1  0
 18 42  1  0
 20 43  1  0
 22 44  1  0
 23 45  1  0
M  END
>  <Energy>  (966) 
52.953522888741929

>  <compound_id>  (966) 
28363

>  <target_id>  (966) 
1

>  <reference_id>  (966) 
81

>  <inspiration_ids>  (966) 
[123, 81]

>  <energy_score>  (966) 
10.065202472297528

>  <distance_score>  (966) 
14.214458773426012

>  <path>  (966) 
/opt/xchem-fragalysis-2/maxwin/BulkDock/SCRATCH/511024/C28363-P81/C28363-P81.minimised.mol

>  <scratch_subdir>  (966) 
/opt/xchem-fragalysis-2/maxwin/BulkDock/SCRATCH/511024/C28363-P81

>  <fragmenstein_runtime>  (966) 
54.47260928153992

>  <fragmenstein_outcome>  (966) 
too moved

>  <fragmenstein_mode>  (966) 
expansion

>  <fragmenstein_error>  (966) 


$$$$
C18696-P123
     RDKit          3D

 37 38  0  0  0  0  0  0  0  0999 V2000
   -2.4849  -15.3759   24.6700 C   0  0  0  0  0  0  0  0  0  0  0  0
   -1.6722  -14.1775   25.3129 C   0  0  0  0  0  0  0  0  0  0  0  0
   -0.4492  -13.8980   23.5794 C   0  0  0  0  0  0  0  0  0  0  0  0
    0.2257  -12.1147   22.7769 N   0  0  0  0  0  0  0  0  0  0  0  0
   -0.6292  -10.8560   21.8159 C   0  0  0  0  0  0  0  0  0  0  0  0
   -1.7793  -10.9199   21.3945 O   0  0  0  0  0  0  0  0  0  0  0  0
    0.0045   -9.3690   21.4980 C   0  0  0  0  0  0  0  0  0  0  0  0
    1.2744   -8.7338   21.1642 C   0  0  0  0  0  0  0  0  0  0  0  0
    1.0608   -7.4025   20.8975 C   0  0  0  0  0  0  0  0  0  0  0  0
   -0.2641   -7.2471   21.0826 N   0  0  0  0  0  0  0  0  0  0  0  0
   -0.9010   -8.3450   21.5112 N   0  0  0  0  0  0  0  0  0  0  0  0
   -1.9143  -15.0377   27.0661 N   0  0  0  0  0  0  0  0  0  0  0  0
   -1.8417  -14.8867   28.8765 C   0  0  0  0  0  0  0  0  0  0  0  0
   -1.1145  -15.3905   30.6137 C   0  0  0  0  0  0  0  0  0  0  0  0
   -1.7914  -15.9101   31.8523 C   0  0  0  0  0  0  0  0  0  0  0  0
   -0.9370  -15.8299   32.9473 C   0  0  0  0  0  0  0  0  0  0  0  0
    0.2591  -15.5116   32.4995 N   0  0  0  0  0  0  0  0  0  0  0  0
    0.1434  -15.7648   31.1641 N   0  0  0  0  0  0  0  0  0  0  0  0
    1.0343  -16.8248   30.7512 C   0  0  0  0  0  0  0  0  0  0  0  0
   -2.7849  -16.2338   25.2510 H   0  0  0  0  0  0  0  0  0  0  0  0
   -3.2472  -15.2517   23.8948 H   0  0  0  0  0  0  0  0  0  0  0  0
   -1.6535  -15.6078   24.0981 H   0  0  0  0  0  0  0  0  0  0  0  0
   -2.2712  -13.2592   25.4657 H   0  0  0  0  0  0  0  0  0  0  0  0
    0.5132  -14.2324   23.9632 H   0  0  0  0  0  0  0  0  0  0  0  0
   -0.6884  -14.5226   22.7123 H   0  0  0  0  0  0  0  0  0  0  0  0
    1.1514  -11.7534   23.0680 H   0  0  0  0  0  0  0  0  0  0  0  0
    2.2570   -9.1477   21.1000 H   0  0  0  0  0  0  0  0  0  0  0  0
    1.7148   -6.5987   20.5988 H   0  0  0  0  0  0  0  0  0  0  0  0
   -0.8162   -6.4060   20.9657 H   0  0  0  0  0  0  0  0  0  0  0  0
   -2.1638  -16.0302   26.9921 H   0  0  0  0  0  0  0  0  0  0  0  0
   -0.9064  -15.4012   28.6255 H   0  0  0  0  0  0  0  0  0  0  0  0
   -2.8328  -15.2431   29.1287 H   0  0  0  0  0  0  0  0  0  0  0  0
   -2.8045  -16.2028   31.9802 H   0  0  0  0  0  0  0  0  0  0  0  0
   -1.1255  -15.9645   34.0034 H   0  0  0  0  0  0  0  0  0  0  0  0
    1.1818  -16.7152   29.6857 H   0  0  0  0  0  0  0  0  0  0  0  0
    1.9599  -16.7577   31.3225 H   0  0  0  0  0  0  0  0  0  0  0  0
    0.5943  -17.7910   31.0151 H   0  0  0  0  0  0  0  0  0  0  0  0
  1  2  1  0
  2  3  1  0
  3  4  1  0
  4  5  1  0
  5  6  2  0
  5  7  1  0
  7  8  1  0
  8  9  2  0
  9 10  1  0
 10 11  1  0
  2 12  1  0
 12 13  1  0
 13 14  1  0
 14 15  2  0
 15 16  1  0
 16 17  2  0
 17 18  1  0
 18 19  1  0
 11  7  2  0
 18 14  1  0
  1 20  1  0
  1 21  1  0
  1 22  1  0
  2 23  1  0
  3 24  1  0
  3 25  1  0
  4 26  1  0
  8 27  1  0
  9 28  1  0
 10 29  1  0
 12 30  1  0
 13 31  1  0
 13 32  1  0
 15 33  1  0
 16 34  1  0
 19 35  1  0
 19 36  1  0
 19 37  1  0
M  END
>  <Energy>  (967) 
673.39728998650105

>  <compound_id>  (967) 
18696

>  <target_id>  (967) 
1

>  <reference_id>  (967) 
123

>  <inspiration_ids>  (967) 
[123, 81]

>  <energy_score>  (967) 
601.5529521133169

>  <distance_score>  (967) 
14.548020266094536

>  <path>  (967) 
/opt/xchem-fragalysis-2/maxwin/BulkDock/SCRATCH/511024/C18696-P123/C18696-P123.minimised.mol

>  <scratch_subdir>  (967) 
/opt/xchem-fragalysis-2/maxwin/BulkDock/SCRATCH/511024/C18696-P123

>  <fragmenstein_runtime>  (967) 
24.872493267059326

>  <fragmenstein_outcome>  (967) 
too moved

>  <fragmenstein_mode>  (967) 
expansion

>  <fragmenstein_error>  (967) 


$$$$
C18696-P81
     RDKit          3D

 37 38  0  0  0  0  0  0  0  0999 V2000
   -2.7245  -17.1104   27.1681 C   0  0  0  0  0  0  0  0  0  0  0  0
   -3.3517  -16.0434   28.2403 C   0  0  0  0  0  0  0  0  0  0  0  0
   -2.4677  -14.7054   26.8416 C   0  0  0  0  0  0  0  0  0  0  0  0
   -1.2093  -13.7226   25.5317 N   0  0  0  0  0  0  0  0  0  0  0  0
    0.7312  -13.4420   25.6443 C   0  0  0  0  0  0  0  0  0  0  0  0
    1.3687  -13.7665   26.5818 O   0  0  0  0  0  0  0  0  0  0  0  0
    1.8245  -12.8502   24.3920 C   0  0  0  0  0  0  0  0  0  0  0  0
    3.1462  -13.3431   23.9840 C   0  0  0  0  0  0  0  0  0  0  0  0
    3.1968  -12.7445   22.7706 C   0  0  0  0  0  0  0  0  0  0  0  0
    2.7846  -11.6444   23.2037 N   0  0  0  0  0  0  0  0  0  0  0  0
    1.5802  -11.9948   23.4197 N   0  0  0  0  0  0  0  0  0  0  0  0
   -4.8177  -16.6247   29.5295 N   0  0  0  0  0  0  0  0  0  0  0  0
   -5.6565  -16.8905   31.3342 C   0  0  0  0  0  0  0  0  0  0  0  0
   -5.7720  -17.8050   32.8780 C   0  0  0  0  0  0  0  0  0  0  0  0
   -4.7966  -18.5112   33.5942 C   0  0  0  0  0  0  0  0  0  0  0  0
   -5.3714  -18.8847   34.8087 C   0  0  0  0  0  0  0  0  0  0  0  0
   -6.6251  -18.4730   34.9124 N   0  0  0  0  0  0  0  0  0  0  0  0
   -6.8521  -17.7948   33.7663 N   0  0  0  0  0  0  0  0  0  0  0  0
   -8.0935  -17.0673   33.7553 C   0  0  0  0  0  0  0  0  0  0  0  0
   -3.1654  -18.0469   27.2579 H   0  0  0  0  0  0  0  0  0  0  0  0
   -1.6492  -17.2864   27.2050 H   0  0  0  0  0  0  0  0  0  0  0  0
   -2.8127  -16.8630   26.1121 H   0  0  0  0  0  0  0  0  0  0  0  0
   -2.8901  -15.4668   29.0911 H   0  0  0  0  0  0  0  0  0  0  0  0
   -1.6098  -15.2614   27.1615 H   0  0  0  0  0  0  0  0  0  0  0  0
   -2.2670  -14.2550   27.8152 H   0  0  0  0  0  0  0  0  0  0  0  0
   -1.5451  -13.3201   24.7340 H   0  0  0  0  0  0  0  0  0  0  0  0
    3.7330  -14.1661   24.3699 H   0  0  0  0  0  0  0  0  0  0  0  0
    3.4879  -12.8165   21.7165 H   0  0  0  0  0  0  0  0  0  0  0  0
    2.9904  -10.6958   22.8672 H   0  0  0  0  0  0  0  0  0  0  0  0
   -5.4735  -17.2057   29.0043 H   0  0  0  0  0  0  0  0  0  0  0  0
   -4.7720  -16.8938   32.0415 H   0  0  0  0  0  0  0  0  0  0  0  0
   -6.3009  -17.7690   31.1457 H   0  0  0  0  0  0  0  0  0  0  0  0
   -3.7655  -18.6750   33.3283 H   0  0  0  0  0  0  0  0  0  0  0  0
   -4.9226  -19.4266   35.6305 H   0  0  0  0  0  0  0  0  0  0  0  0
   -8.5685  -17.1297   34.7404 H   0  0  0  0  0  0  0  0  0  0  0  0
   -8.7573  -17.5308   33.0330 H   0  0  0  0  0  0  0  0  0  0  0  0
   -7.9058  -16.0153   33.5483 H   0  0  0  0  0  0  0  0  0  0  0  0
  1  2  1  0
  2  3  1  0
  3  4  1  0
  4  5  1  0
  5  6  2  0
  5  7  1  0
  7  8  1  0
  8  9  2  0
  9 10  1  0
 10 11  1  0
  2 12  1  0
 12 13  1  0
 13 14  1  0
 14 15  2  0
 15 16  1  0
 16 17  2  0
 17 18  1  0
 18 19  1  0
 11  7  2  0
 18 14  1  0
  1 20  1  0
  1 21  1  0
  1 22  1  0
  2 23  1  0
  3 24  1  0
  3 25  1  0
  4 26  1  0
  8 27  1  0
  9 28  1  0
 10 29  1  0
 12 30  1  0
 13 31  1  0
 13 32  1  0
 15 33  1  0
 16 34  1  0
 19 35  1  0
 19 36  1  0
 19 37  1  0
M  END
>  <Energy>  (968) 
960.35803594500555

>  <compound_id>  (968) 
18696

>  <target_id>  (968) 
1

>  <reference_id>  (968) 
81

>  <inspiration_ids>  (968) 
[123, 81]

>  <energy_score>  (968) 
888.5136980718166

>  <distance_score>  (968) 
13.693537907867524

>  <path>  (968) 
/opt/xchem-fragalysis-2/maxwin/BulkDock/SCRATCH/511024/C18696-P81/C18696-P81.minimised.mol

>  <scratch_subdir>  (968) 
/opt/xchem-fragalysis-2/maxwin/BulkDock/SCRATCH/511024/C18696-P81

>  <fragmenstein_runtime>  (968) 
27.388930082321167

>  <fragmenstein_outcome>  (968) 
too moved

>  <fragmenstein_mode>  (968) 
expansion

>  <fragmenstein_error>  (968) 


$$$$
C28364-P123
     RDKit          3D

 37 38  0  0  0  0  0  0  0  0999 V2000
   -6.0701  -21.2690   20.1514 C   0  0  0  0  0  0  0  0  0  0  0  0
   -5.9881  -19.9537   20.9302 C   0  0  0  0  0  0  0  0  0  0  0  0
   -7.3303  -19.1559   20.7772 C   0  0  0  0  0  0  0  0  0  0  0  0
   -8.5399  -19.7403   21.3487 N   0  0  0  0  0  0  0  0  0  0  0  0
   -9.7481  -19.1235   21.8337 C   0  0  0  0  0  0  0  0  0  0  0  0
  -10.0362  -17.9706   21.9645 O   0  0  0  0  0  0  0  0  0  0  0  0
  -10.7555  -20.0938   22.3371 C   0  0  0  0  0  0  0  0  0  0  0  0
  -10.7388  -21.4975   22.4733 C   0  0  0  0  0  0  0  0  0  0  0  0
  -11.7983  -22.0017   23.1172 N   0  0  0  0  0  0  0  0  0  0  0  0
  -12.4841  -20.9113   23.4733 N   0  0  0  0  0  0  0  0  0  0  0  0
  -11.9723  -19.7691   22.9229 C   0  0  0  0  0  0  0  0  0  0  0  0
   -4.8717  -19.0709   20.4569 N   0  0  0  0  0  0  0  0  0  0  0  0
   -3.5537  -19.6817   20.1800 C   0  0  0  0  0  0  0  0  0  0  0  0
   -2.4996  -18.6713   19.9461 C   0  0  0  0  0  0  0  0  0  0  0  0
   -1.2094  -18.5873   20.4236 C   0  0  0  0  0  0  0  0  0  0  0  0
   -0.8510  -17.2740   20.1429 C   0  0  0  0  0  0  0  0  0  0  0  0
   -1.7677  -16.6291   19.4130 N   0  0  0  0  0  0  0  0  0  0  0  0
   -2.6524  -17.5860   19.1302 N   0  0  0  0  0  0  0  0  0  0  0  0
   -3.6402  -17.4214   18.0908 C   0  0  0  0  0  0  0  0  0  0  0  0
   -6.1906  -21.0898   19.0774 H   0  0  0  0  0  0  0  0  0  0  0  0
   -5.1716  -21.8771   20.2985 H   0  0  0  0  0  0  0  0  0  0  0  0
   -6.9183  -21.8738   20.4880 H   0  0  0  0  0  0  0  0  0  0  0  0
   -5.8256  -20.1813   21.9904 H   0  0  0  0  0  0  0  0  0  0  0  0
   -7.5443  -18.9852   19.7150 H   0  0  0  0  0  0  0  0  0  0  0  0
   -7.2246  -18.1658   21.2379 H   0  0  0  0  0  0  0  0  0  0  0  0
   -8.6782  -20.7409   21.2970 H   0  0  0  0  0  0  0  0  0  0  0  0
   -9.9490  -22.1649   22.1732 H   0  0  0  0  0  0  0  0  0  0  0  0
  -13.2690  -21.0188   24.1182 H   0  0  0  0  0  0  0  0  0  0  0  0
  -12.4580  -18.8133   23.0612 H   0  0  0  0  0  0  0  0  0  0  0  0
   -4.7379  -18.3204   21.1373 H   0  0  0  0  0  0  0  0  0  0  0  0
   -3.2674  -20.3062   21.0348 H   0  0  0  0  0  0  0  0  0  0  0  0
   -3.6232  -20.3298   19.2994 H   0  0  0  0  0  0  0  0  0  0  0  0
   -0.6830  -19.2990   21.0440 H   0  0  0  0  0  0  0  0  0  0  0  0
    0.0208  -16.7509   20.4924 H   0  0  0  0  0  0  0  0  0  0  0  0
   -3.2623  -16.7258   17.3382 H   0  0  0  0  0  0  0  0  0  0  0  0
   -4.5624  -17.0500   18.5392 H   0  0  0  0  0  0  0  0  0  0  0  0
   -3.8161  -18.3890   17.6133 H   0  0  0  0  0  0  0  0  0  0  0  0
  1  2  1  0
  2  3  1  0
  3  4  1  0
  4  5  1  0
  5  6  2  0
  5  7  1  0
  7  8  1  0
  8  9  2  0
  9 10  1  0
 10 11  1  0
  2 12  1  0
 12 13  1  0
 13 14  1  0
 14 15  2  0
 15 16  1  0
 16 17  2  0
 17 18  1  0
 18 19  1  0
 11  7  2  0
 18 14  1  0
  1 20  1  0
  1 21  1  0
  1 22  1  0
  2 23  1  0
  3 24  1  0
  3 25  1  0
  4 26  1  0
  8 27  1  0
 10 28  1  0
 11 29  1  0
 12 30  1  0
 13 31  1  0
 13 32  1  0
 15 33  1  0
 16 34  1  0
 19 35  1  0
 19 36  1  0
 19 37  1  0
M  END
>  <Energy>  (969) 
12.909052204003832

>  <compound_id>  (969) 
28364

>  <target_id>  (969) 
1

>  <reference_id>  (969) 
123

>  <inspiration_ids>  (969) 
[123, 81]

>  <energy_score>  (969) 
-21.740225266409027

>  <distance_score>  (969) 
15.85428922349584

>  <path>  (969) 
/opt/xchem-fragalysis-2/maxwin/BulkDock/SCRATCH/511024/C28364-P123/C28364-P123.minimised.mol

>  <scratch_subdir>  (969) 
/opt/xchem-fragalysis-2/maxwin/BulkDock/SCRATCH/511024/C28364-P123

>  <fragmenstein_runtime>  (969) 
32.564661741256714

>  <fragmenstein_outcome>  (969) 
too moved

>  <fragmenstein_mode>  (969) 
expansion

>  <fragmenstein_error>  (969) 


$$$$
C28364-P81
     RDKit          3D

 37 38  0  0  0  0  0  0  0  0999 V2000
   -7.0957  -17.5342   29.2595 C   0  0  0  0  0  0  0  0  0  0  0  0
   -7.4070  -18.5035   28.1046 C   0  0  0  0  0  0  0  0  0  0  0  0
   -9.0084  -19.3529   28.1472 C   0  0  0  0  0  0  0  0  0  0  0  0
  -10.1586  -20.5218   29.2566 N   0  0  0  0  0  0  0  0  0  0  0  0
  -11.0086  -21.7005   28.8796 C   0  0  0  0  0  0  0  0  0  0  0  0
  -11.2587  -22.1676   27.8042 O   0  0  0  0  0  0  0  0  0  0  0  0
  -11.5451  -22.4746   30.0202 C   0  0  0  0  0  0  0  0  0  0  0  0
  -11.7237  -23.8867   29.9368 C   0  0  0  0  0  0  0  0  0  0  0  0
  -11.8728  -24.4639   31.1255 N   0  0  0  0  0  0  0  0  0  0  0  0
  -12.0277  -23.4311   31.9554 N   0  0  0  0  0  0  0  0  0  0  0  0
  -11.7419  -22.2256   31.3611 C   0  0  0  0  0  0  0  0  0  0  0  0
   -6.0655  -18.8628   27.4559 N   0  0  0  0  0  0  0  0  0  0  0  0
   -5.3270  -17.7236   26.7120 C   0  0  0  0  0  0  0  0  0  0  0  0
   -3.8231  -17.8365   26.7347 C   0  0  0  0  0  0  0  0  0  0  0  0
   -2.9557  -18.6212   25.9924 C   0  0  0  0  0  0  0  0  0  0  0  0
   -1.6965  -18.4625   26.5970 C   0  0  0  0  0  0  0  0  0  0  0  0
   -1.7240  -17.5617   27.5777 N   0  0  0  0  0  0  0  0  0  0  0  0
   -3.0002  -17.1269   27.5873 N   0  0  0  0  0  0  0  0  0  0  0  0
   -3.3854  -16.1429   28.5716 C   0  0  0  0  0  0  0  0  0  0  0  0
   -7.9510  -16.8891   29.4527 H   0  0  0  0  0  0  0  0  0  0  0  0
   -6.7542  -18.0378   30.1633 H   0  0  0  0  0  0  0  0  0  0  0  0
   -6.2963  -16.8286   29.0185 H   0  0  0  0  0  0  0  0  0  0  0  0
   -7.7344  -17.7907   27.3279 H   0  0  0  0  0  0  0  0  0  0  0  0
   -9.2486  -20.3677   27.6047 H   0  0  0  0  0  0  0  0  0  0  0  0
   -9.5816  -18.3923   27.9799 H   0  0  0  0  0  0  0  0  0  0  0  0
  -10.1030  -20.4617   30.2737 H   0  0  0  0  0  0  0  0  0  0  0  0
  -11.6332  -24.5097   29.0545 H   0  0  0  0  0  0  0  0  0  0  0  0
  -12.2678  -23.6318   32.9232 H   0  0  0  0  0  0  0  0  0  0  0  0
  -11.6774  -21.3437   31.9713 H   0  0  0  0  0  0  0  0  0  0  0  0
   -6.1797  -19.6079   26.7831 H   0  0  0  0  0  0  0  0  0  0  0  0
   -5.6696  -17.7615   25.6702 H   0  0  0  0  0  0  0  0  0  0  0  0
   -5.6381  -16.7461   27.0867 H   0  0  0  0  0  0  0  0  0  0  0  0
   -3.2290  -19.3187   25.2139 H   0  0  0  0  0  0  0  0  0  0  0  0
   -0.7677  -18.9751   26.3835 H   0  0  0  0  0  0  0  0  0  0  0  0
   -4.0561  -15.4186   28.1045 H   0  0  0  0  0  0  0  0  0  0  0  0
   -3.8776  -16.6596   29.3984 H   0  0  0  0  0  0  0  0  0  0  0  0
   -2.4926  -15.6240   28.9315 H   0  0  0  0  0  0  0  0  0  0  0  0
  1  2  1  0
  2  3  1  0
  3  4  1  0
  4  5  1  0
  5  6  2  0
  5  7  1  0
  7  8  1  0
  8  9  2  0
  9 10  1  0
 10 11  1  0
  2 12  1  0
 12 13  1  0
 13 14  1  0
 14 15  2  0
 15 16  1  0
 16 17  2  0
 17 18  1  0
 18 19  1  0
 11  7  2  0
 18 14  1  0
  1 20  1  0
  1 21  1  0
  1 22  1  0
  2 23  1  0
  3 24  1  0
  3 25  1  0
  4 26  1  0
  8 27  1  0
 10 28  1  0
 11 29  1  0
 12 30  1  0
 13 31  1  0
 13 32  1  0
 15 33  1  0
 16 34  1  0
 19 35  1  0
 19 36  1  0
 19 37  1  0
M  END
>  <Energy>  (970) 
188.68674753232867

>  <compound_id>  (970) 
28364

>  <target_id>  (970) 
1

>  <reference_id>  (970) 
81

>  <inspiration_ids>  (970) 
[123, 81]

>  <energy_score>  (970) 
154.0374700619054

>  <distance_score>  (970) 
15.722659702001293

>  <path>  (970) 
/opt/xchem-fragalysis-2/maxwin/BulkDock/SCRATCH/511024/C28364-P81/C28364-P81.minimised.mol

>  <scratch_subdir>  (970) 
/opt/xchem-fragalysis-2/maxwin/BulkDock/SCRATCH/511024/C28364-P81

>  <fragmenstein_runtime>  (970) 
20.033463716506958

>  <fragmenstein_outcome>  (970) 
too moved

>  <fragmenstein_mode>  (970) 
expansion

>  <fragmenstein_error>  (970) 


$$$$
C46485-P123
     RDKit          3D

 45 48  0  0  0  0  0  0  0  0999 V2000
   -3.2155  -15.7208   25.0290 O   0  0  0  0  0  0  0  0  0  0  0  0
   -2.2344  -14.8117   25.5961 S   0  0  0  0  0  0  0  0  0  0  0  0
   -1.5804  -15.3316   24.3881 O   0  0  0  0  0  0  0  0  0  0  0  0
   -1.9922  -15.3828   27.6135 C   0  0  0  0  0  0  0  0  0  0  0  0
   -2.2284  -15.0405   29.4073 C   0  0  0  0  0  0  0  0  0  0  0  0
   -0.9417  -15.2741   30.3381 C   0  0  0  0  0  0  0  0  0  0  0  0
   -1.3152  -15.4957   31.6308 C   0  0  0  0  0  0  0  0  0  0  0  0
   -2.5611  -16.1167   31.6651 N   0  0  0  0  0  0  0  0  0  0  0  0
   -3.4770  -16.4858   33.0192 C   0  0  0  0  0  0  0  0  0  0  0  0
   -3.3197  -15.5715   34.3224 C   0  0  0  0  0  0  0  0  0  0  0  0
   -3.8111  -16.4236   35.4879 C   0  0  0  0  0  0  0  0  0  0  0  0
   -3.3067  -17.8075   35.1734 C   0  0  0  0  0  0  0  0  0  0  0  0
   -3.4889  -17.9372   33.6633 C   0  0  0  0  0  0  0  0  0  0  0  0
   -3.1510  -15.7291   30.1614 N   0  0  0  0  0  0  0  0  0  0  0  0
   -1.0286  -13.5373   25.3309 C   0  0  0  0  0  0  0  0  0  0  0  0
    1.0191  -13.5205   25.6025 C   0  0  0  0  0  0  0  0  0  0  0  0
    1.2187  -12.3282   26.0656 N   0  0  0  0  0  0  0  0  0  0  0  0
    1.7810  -11.7951   24.8888 N   0  0  0  0  0  0  0  0  0  0  0  0
    2.2737  -12.1043   23.6572 C   0  0  0  0  0  0  0  0  0  0  0  0
    2.3754  -13.2510   24.2500 C   0  0  0  0  0  0  0  0  0  0  0  0
    3.7806  -13.8504   23.8105 C   0  0  0  0  0  0  0  0  0  0  0  0
    4.2455  -12.9558   22.6128 C   0  0  0  0  0  0  0  0  0  0  0  0
    3.2479  -11.7689   22.5241 C   0  0  0  0  0  0  0  0  0  0  0  0
   -2.0663  -16.4643   27.4004 H   0  0  0  0  0  0  0  0  0  0  0  0
   -1.0319  -14.9656   27.7555 H   0  0  0  0  0  0  0  0  0  0  0  0
    0.0428  -15.5066   29.9758 H   0  0  0  0  0  0  0  0  0  0  0  0
   -1.1472  -14.7998   32.4276 H   0  0  0  0  0  0  0  0  0  0  0  0
   -4.5190  -16.4485   32.6940 H   0  0  0  0  0  0  0  0  0  0  0  0
   -2.3035  -15.2175   34.5143 H   0  0  0  0  0  0  0  0  0  0  0  0
   -3.9203  -14.6756   34.3450 H   0  0  0  0  0  0  0  0  0  0  0  0
   -4.9073  -16.4179   35.5194 H   0  0  0  0  0  0  0  0  0  0  0  0
   -3.4429  -16.0559   36.4502 H   0  0  0  0  0  0  0  0  0  0  0  0
   -3.8568  -18.5810   35.7185 H   0  0  0  0  0  0  0  0  0  0  0  0
   -2.2516  -17.9011   35.4504 H   0  0  0  0  0  0  0  0  0  0  0  0
   -2.7758  -18.6448   33.2644 H   0  0  0  0  0  0  0  0  0  0  0  0
   -4.4850  -18.3770   33.5076 H   0  0  0  0  0  0  0  0  0  0  0  0
   -1.6439  -12.6506   25.5303 H   0  0  0  0  0  0  0  0  0  0  0  0
   -0.7693  -13.8733   24.2699 H   0  0  0  0  0  0  0  0  0  0  0  0
    2.2584  -11.1609   25.4441 H   0  0  0  0  0  0  0  0  0  0  0  0
    3.8038  -14.8716   23.4698 H   0  0  0  0  0  0  0  0  0  0  0  0
    4.5164  -13.8024   24.6180 H   0  0  0  0  0  0  0  0  0  0  0  0
    4.2354  -13.5313   21.6795 H   0  0  0  0  0  0  0  0  0  0  0  0
    5.2741  -12.6104   22.7644 H   0  0  0  0  0  0  0  0  0  0  0  0
    3.7530  -10.7966   22.4861 H   0  0  0  0  0  0  0  0  0  0  0  0
    2.7907  -11.7324   21.5424 H   0  0  0  0  0  0  0  0  0  0  0  0
  1  2  2  0
  2  3  2  0
  2  4  1  0
  4  5  1  0
  5  6  1  0
  6  7  2  0
  7  8  1  0
  8  9  1  0
  9 10  1  0
 10 11  1  0
 11 12  1  0
 12 13  1  0
  8 14  1  0
  2 15  1  0
 15 16  1  0
 16 17  2  0
 17 18  1  0
 18 19  1  0
 19 20  2  0
 20 21  1  0
 21 22  1  0
 22 23  1  0
 14  5  2  0
 20 16  1  0
 13  9  1  0
 23 19  1  0
  4 24  1  0
  4 25  1  0
  6 26  1  0
  7 27  1  0
  9 28  1  0
 10 29  1  0
 10 30  1  0
 11 31  1  0
 11 32  1  0
 12 33  1  0
 12 34  1  0
 13 35  1  0
 13 36  1  0
 15 37  1  0
 15 38  1  0
 18 39  1  0
 21 40  1  0
 21 41  1  0
 22 42  1  0
 22 43  1  0
 23 44  1  0
 23 45  1  0
M  END
>  <Energy>  (971) 
786.27720138622396

>  <compound_id>  (971) 
46485

>  <target_id>  (971) 
1

>  <reference_id>  (971) 
123

>  <inspiration_ids>  (971) 
[123, 81]

>  <energy_score>  (971) 
668.7070107194727

>  <distance_score>  (971) 
16.139447892937422

>  <path>  (971) 
/opt/xchem-fragalysis-2/maxwin/BulkDock/SCRATCH/511024/C46485-P123/C46485-P123.minimised.mol

>  <scratch_subdir>  (971) 
/opt/xchem-fragalysis-2/maxwin/BulkDock/SCRATCH/511024/C46485-P123

>  <fragmenstein_runtime>  (971) 
30.954562187194824

>  <fragmenstein_outcome>  (971) 
too moved

>  <fragmenstein_mode>  (971) 
expansion

>  <fragmenstein_error>  (971) 


$$$$
C46485-P81
     RDKit          3D

 45 48  0  0  0  0  0  0  0  0999 V2000
    5.9512  -14.5272   21.1372 O   0  0  0  0  0  0  0  0  0  0  0  0
    6.6340  -13.9840   22.3003 S   0  0  0  0  0  0  0  0  0  0  0  0
    7.9753  -14.4377   22.6269 O   0  0  0  0  0  0  0  0  0  0  0  0
    5.5648  -14.2959   23.7375 C   0  0  0  0  0  0  0  0  0  0  0  0
    5.3839  -15.7399   24.2000 C   0  0  0  0  0  0  0  0  0  0  0  0
    5.0349  -16.9076   23.4662 C   0  0  0  0  0  0  0  0  0  0  0  0
    4.9189  -17.9256   24.3913 C   0  0  0  0  0  0  0  0  0  0  0  0
    5.3094  -17.3826   25.5833 N   0  0  0  0  0  0  0  0  0  0  0  0
    5.9468  -18.0831   26.6823 C   0  0  0  0  0  0  0  0  0  0  0  0
    5.6532  -17.4943   28.0572 C   0  0  0  0  0  0  0  0  0  0  0  0
    6.0758  -18.5818   29.0369 C   0  0  0  0  0  0  0  0  0  0  0  0
    6.0144  -19.9006   28.2675 C   0  0  0  0  0  0  0  0  0  0  0  0
    5.5662  -19.5530   26.8521 C   0  0  0  0  0  0  0  0  0  0  0  0
    5.4432  -16.0361   25.5142 N   0  0  0  0  0  0  0  0  0  0  0  0
    6.6782  -12.1609   22.1525 C   0  0  0  0  0  0  0  0  0  0  0  0
    7.4478  -11.5369   21.0157 C   0  0  0  0  0  0  0  0  0  0  0  0
    8.0964  -10.3581   21.2124 N   0  0  0  0  0  0  0  0  0  0  0  0
    8.6128  -10.0264   20.0024 N   0  0  0  0  0  0  0  0  0  0  0  0
    8.2497  -10.9069   19.0513 C   0  0  0  0  0  0  0  0  0  0  0  0
    7.5227  -11.8857   19.6596 C   0  0  0  0  0  0  0  0  0  0  0  0
    7.0695  -12.9071   18.6970 C   0  0  0  0  0  0  0  0  0  0  0  0
    7.8747  -12.5244   17.4064 C   0  0  0  0  0  0  0  0  0  0  0  0
    8.4363  -11.0755   17.6042 C   0  0  0  0  0  0  0  0  0  0  0  0
    4.5821  -13.8839   23.4829 H   0  0  0  0  0  0  0  0  0  0  0  0
    5.9896  -13.7023   24.5550 H   0  0  0  0  0  0  0  0  0  0  0  0
    4.9011  -16.9909   22.3964 H   0  0  0  0  0  0  0  0  0  0  0  0
    4.7200  -18.9803   24.2684 H   0  0  0  0  0  0  0  0  0  0  0  0
    7.0269  -18.0179   26.4879 H   0  0  0  0  0  0  0  0  0  0  0  0
    6.1905  -16.5574   28.2381 H   0  0  0  0  0  0  0  0  0  0  0  0
    4.5860  -17.2824   28.1556 H   0  0  0  0  0  0  0  0  0  0  0  0
    5.4331  -18.5938   29.9229 H   0  0  0  0  0  0  0  0  0  0  0  0
    7.1010  -18.4037   29.3818 H   0  0  0  0  0  0  0  0  0  0  0  0
    5.3324  -20.6163   28.7373 H   0  0  0  0  0  0  0  0  0  0  0  0
    7.0079  -20.3636   28.2484 H   0  0  0  0  0  0  0  0  0  0  0  0
    6.0506  -20.1958   26.1095 H   0  0  0  0  0  0  0  0  0  0  0  0
    4.4857  -19.6967   26.7492 H   0  0  0  0  0  0  0  0  0  0  0  0
    5.6305  -11.8482   22.0759 H   0  0  0  0  0  0  0  0  0  0  0  0
    7.0742  -11.8037   23.1102 H   0  0  0  0  0  0  0  0  0  0  0  0
    9.1876   -9.1946   19.9402 H   0  0  0  0  0  0  0  0  0  0  0  0
    5.9932  -12.8265   18.5160 H   0  0  0  0  0  0  0  0  0  0  0  0
    7.3169  -13.9257   19.0048 H   0  0  0  0  0  0  0  0  0  0  0  0
    7.2617  -12.6063   16.5029 H   0  0  0  0  0  0  0  0  0  0  0  0
    8.7160  -13.2206   17.2916 H   0  0  0  0  0  0  0  0  0  0  0  0
    7.8382  -10.3557   17.0383 H   0  0  0  0  0  0  0  0  0  0  0  0
    9.4798  -11.0260   17.2858 H   0  0  0  0  0  0  0  0  0  0  0  0
  1  2  2  0
  2  3  2  0
  2  4  1  0
  4  5  1  0
  5  6  1  0
  6  7  2  0
  7  8  1  0
  8  9  1  0
  9 10  1  0
 10 11  1  0
 11 12  1  0
 12 13  1  0
  8 14  1  0
  2 15  1  0
 15 16  1  0
 16 17  2  0
 17 18  1  0
 18 19  1  0
 19 20  2  0
 20 21  1  0
 21 22  1  0
 22 23  1  0
 14  5  2  0
 20 16  1  0
 13  9  1  0
 23 19  1  0
  4 24  1  0
  4 25  1  0
  6 26  1  0
  7 27  1  0
  9 28  1  0
 10 29  1  0
 10 30  1  0
 11 31  1  0
 11 32  1  0
 12 33  1  0
 12 34  1  0
 13 35  1  0
 13 36  1  0
 15 37  1  0
 15 38  1  0
 18 39  1  0
 21 40  1  0
 21 41  1  0
 22 42  1  0
 22 43  1  0
 23 44  1  0
 23 45  1  0
M  END
>  <Energy>  (972) 
81.319651170957528

>  <compound_id>  (972) 
46485

>  <target_id>  (972) 
1

>  <reference_id>  (972) 
81

>  <inspiration_ids>  (972) 
[123, 81]

>  <energy_score>  (972) 
-36.25053949578364

>  <distance_score>  (972) 
16.44369560450661

>  <path>  (972) 
/opt/xchem-fragalysis-2/maxwin/BulkDock/SCRATCH/511024/C46485-P81/C46485-P81.minimised.mol

>  <scratch_subdir>  (972) 
/opt/xchem-fragalysis-2/maxwin/BulkDock/SCRATCH/511024/C46485-P81

>  <fragmenstein_runtime>  (972) 
41.69930839538574

>  <fragmenstein_outcome>  (972) 
too moved

>  <fragmenstein_mode>  (972) 
expansion

>  <fragmenstein_error>  (972) 


$$$$
C18698-P123
     RDKit          3D

 49 51  0  0  0  0  0  0  0  0999 V2000
   -2.7465  -12.6579   25.6593 C   0  0  0  0  0  0  0  0  0  0  0  0
   -2.0442  -14.1194   25.6281 C   0  0  0  0  0  0  0  0  0  0  0  0
   -1.3074  -14.7833   24.5431 C   0  0  0  0  0  0  0  0  0  0  0  0
    0.5458  -14.0722   24.0205 C   0  0  0  0  0  0  0  0  0  0  0  0
    1.5253  -12.3891   23.4546 N   0  0  0  0  0  0  0  0  0  0  0  0
    2.9513  -12.0711   23.3787 C   0  0  0  0  0  0  0  0  0  0  0  0
    3.7662  -12.7651   23.7389 O   0  0  0  0  0  0  0  0  0  0  0  0
    3.7543  -10.5172   22.5220 C   0  0  0  0  0  0  0  0  0  0  0  0
    3.3709   -9.1591   21.8843 C   0  0  0  0  0  0  0  0  0  0  0  0
    4.4950   -8.5081   21.4348 C   0  0  0  0  0  0  0  0  0  0  0  0
    5.4976   -9.3444   21.7395 N   0  0  0  0  0  0  0  0  0  0  0  0
    5.1335  -10.4528   22.3862 N   0  0  0  0  0  0  0  0  0  0  0  0
   -2.3462  -16.3857   24.7579 N   0  0  0  0  0  0  0  0  0  0  0  0
   -1.9804  -17.9342   25.6369 C   0  0  0  0  0  0  0  0  0  0  0  0
   -1.0096  -18.1228   26.3408 O   0  0  0  0  0  0  0  0  0  0  0  0
   -2.9213  -19.5394   25.4180 C   0  0  0  0  0  0  0  0  0  0  0  0
   -2.3242  -20.5309   23.8862 C   0  0  0  0  0  0  0  0  0  0  0  0
   -2.9904  -21.5933   23.3953 C   0  0  0  0  0  0  0  0  0  0  0  0
   -4.1018  -21.6644   24.1662 N   0  0  0  0  0  0  0  0  0  0  0  0
   -4.7789  -22.9870   24.1103 C   0  0  0  0  0  0  0  0  0  0  0  0
   -5.7841  -23.2004   22.9641 C   0  0  0  0  0  0  0  0  0  0  0  0
   -6.4811  -24.4975   23.3581 C   0  0  0  0  0  0  0  0  0  0  0  0
   -6.6049  -24.4277   24.8762 C   0  0  0  0  0  0  0  0  0  0  0  0
   -5.3457  -23.7059   25.3623 C   0  0  0  0  0  0  0  0  0  0  0  0
   -4.3820  -20.2321   24.9789 N   0  0  0  0  0  0  0  0  0  0  0  0
   -2.0838  -11.8455   25.7619 H   0  0  0  0  0  0  0  0  0  0  0  0
   -3.3179  -12.5204   26.5762 H   0  0  0  0  0  0  0  0  0  0  0  0
   -3.4234  -12.3756   24.8572 H   0  0  0  0  0  0  0  0  0  0  0  0
   -1.8752  -14.6622   26.6027 H   0  0  0  0  0  0  0  0  0  0  0  0
   -2.7570  -14.8405   25.6792 H   0  0  0  0  0  0  0  0  0  0  0  0
   -1.5091  -14.9349   23.4926 H   0  0  0  0  0  0  0  0  0  0  0  0
    0.8924  -13.8536   25.0960 H   0  0  0  0  0  0  0  0  0  0  0  0
    1.2128  -14.6698   23.4172 H   0  0  0  0  0  0  0  0  0  0  0  0
    1.0022  -11.5673   23.1451 H   0  0  0  0  0  0  0  0  0  0  0  0
    2.3696   -8.7802   21.7077 H   0  0  0  0  0  0  0  0  0  0  0  0
    4.6313   -7.5737   20.9125 H   0  0  0  0  0  0  0  0  0  0  0  0
    6.4853   -9.2261   21.5458 H   0  0  0  0  0  0  0  0  0  0  0  0
   -3.2418  -16.4551   24.3202 H   0  0  0  0  0  0  0  0  0  0  0  0
   -1.4679  -20.1303   23.3598 H   0  0  0  0  0  0  0  0  0  0  0  0
   -2.7766  -22.2652   22.5749 H   0  0  0  0  0  0  0  0  0  0  0  0
   -3.9470  -23.6642   23.8423 H   0  0  0  0  0  0  0  0  0  0  0  0
   -5.2824  -23.2956   21.9949 H   0  0  0  0  0  0  0  0  0  0  0  0
   -6.5055  -22.3845   22.8669 H   0  0  0  0  0  0  0  0  0  0  0  0
   -7.4528  -24.6100   22.8685 H   0  0  0  0  0  0  0  0  0  0  0  0
   -5.8590  -25.3554   23.0758 H   0  0  0  0  0  0  0  0  0  0  0  0
   -6.7019  -25.4222   25.3230 H   0  0  0  0  0  0  0  0  0  0  0  0
   -7.4985  -23.8602   25.1541 H   0  0  0  0  0  0  0  0  0  0  0  0
   -5.5474  -23.0552   26.2175 H   0  0  0  0  0  0  0  0  0  0  0  0
   -4.6232  -24.4530   25.7160 H   0  0  0  0  0  0  0  0  0  0  0  0
  1  2  1  0
  2  3  1  0
  3  4  1  0
  4  5  1  0
  5  6  1  0
  6  7  2  0
  6  8  1  0
  8  9  1  0
  9 10  2  0
 10 11  1  0
 11 12  1  0
  3 13  1  0
 13 14  1  0
 14 15  2  0
 14 16  1  0
 16 17  1  0
 17 18  2  0
 18 19  1  0
 19 20  1  0
 20 21  1  0
 21 22  1  0
 22 23  1  0
 23 24  1  0
 19 25  1  0
 12  8  2  0
 25 16  2  0
 24 20  1  0
  1 26  1  0
  1 27  1  0
  1 28  1  0
  2 29  1  0
  2 30  1  0
  3 31  1  0
  4 32  1  0
  4 33  1  0
  5 34  1  0
  9 35  1  0
 10 36  1  0
 11 37  1  0
 13 38  1  0
 17 39  1  0
 18 40  1  0
 20 41  1  0
 21 42  1  0
 21 43  1  0
 22 44  1  0
 22 45  1  0
 23 46  1  0
 23 47  1  0
 24 48  1  0
 24 49  1  0
M  END
>  <Energy>  (973) 
792.83831058210637

>  <compound_id>  (973) 
18698

>  <target_id>  (973) 
1

>  <reference_id>  (973) 
123

>  <inspiration_ids>  (973) 
[123, 81]

>  <energy_score>  (973) 
676.8947038996507

>  <distance_score>  (973) 
13.076867372034565

>  <path>  (973) 
/opt/xchem-fragalysis-2/maxwin/BulkDock/SCRATCH/511024/C18698-P123/C18698-P123.minimised.mol

>  <scratch_subdir>  (973) 
/opt/xchem-fragalysis-2/maxwin/BulkDock/SCRATCH/511024/C18698-P123

>  <fragmenstein_runtime>  (973) 
37.491560220718384

>  <fragmenstein_outcome>  (973) 
too moved

>  <fragmenstein_mode>  (973) 
expansion

>  <fragmenstein_error>  (973) 


$$$$
C18698-P81
     RDKit          3D

 49 51  0  0  0  0  0  0  0  0999 V2000
   -2.6395  -15.5471   25.2564 C   0  0  0  0  0  0  0  0  0  0  0  0
   -2.5180  -16.5468   26.8446 C   0  0  0  0  0  0  0  0  0  0  0  0
   -2.4075  -15.4788   28.0960 C   0  0  0  0  0  0  0  0  0  0  0  0
   -0.4509  -15.7646   28.5487 C   0  0  0  0  0  0  0  0  0  0  0  0
    1.4365  -15.6313   28.1943 N   0  0  0  0  0  0  0  0  0  0  0  0
    2.3459  -16.4828   27.4557 C   0  0  0  0  0  0  0  0  0  0  0  0
    2.1696  -17.5381   26.9375 O   0  0  0  0  0  0  0  0  0  0  0  0
    3.9173  -15.5265   27.3362 C   0  0  0  0  0  0  0  0  0  0  0  0
    4.4044  -14.5431   26.2989 C   0  0  0  0  0  0  0  0  0  0  0  0
    5.6234  -14.0076   26.6674 C   0  0  0  0  0  0  0  0  0  0  0  0
    5.8726  -14.5930   27.8492 N   0  0  0  0  0  0  0  0  0  0  0  0
    4.9670  -15.5091   28.2203 N   0  0  0  0  0  0  0  0  0  0  0  0
   -3.5002  -16.0453   29.6504 N   0  0  0  0  0  0  0  0  0  0  0  0
   -5.3574  -16.3813   29.8320 C   0  0  0  0  0  0  0  0  0  0  0  0
   -6.2227  -16.2177   29.0024 O   0  0  0  0  0  0  0  0  0  0  0  0
   -6.0996  -16.8669   31.3615 C   0  0  0  0  0  0  0  0  0  0  0  0
   -5.6413  -17.3798   32.6517 C   0  0  0  0  0  0  0  0  0  0  0  0
   -6.7293  -17.4417   33.4889 C   0  0  0  0  0  0  0  0  0  0  0  0
   -7.7338  -16.8278   32.8119 N   0  0  0  0  0  0  0  0  0  0  0  0
   -8.8870  -16.1552   33.3923 C   0  0  0  0  0  0  0  0  0  0  0  0
   -8.6437  -14.7086   33.8367 C   0  0  0  0  0  0  0  0  0  0  0  0
   -9.8907  -14.3527   34.6365 C   0  0  0  0  0  0  0  0  0  0  0  0
  -10.3740  -15.6646   35.2468 C   0  0  0  0  0  0  0  0  0  0  0  0
   -9.4639  -16.7528   34.6800 C   0  0  0  0  0  0  0  0  0  0  0  0
   -7.4464  -16.6468   31.4923 N   0  0  0  0  0  0  0  0  0  0  0  0
   -2.4660  -14.5262   25.6068 H   0  0  0  0  0  0  0  0  0  0  0  0
   -1.8952  -15.5639   24.4773 H   0  0  0  0  0  0  0  0  0  0  0  0
   -3.5443  -15.6899   24.7033 H   0  0  0  0  0  0  0  0  0  0  0  0
   -1.8418  -17.4088   26.7478 H   0  0  0  0  0  0  0  0  0  0  0  0
   -3.4223  -17.0730   27.1032 H   0  0  0  0  0  0  0  0  0  0  0  0
   -2.2930  -14.4559   28.0197 H   0  0  0  0  0  0  0  0  0  0  0  0
   -0.4903  -15.7231   29.6381 H   0  0  0  0  0  0  0  0  0  0  0  0
   -0.5562  -16.6410   27.9300 H   0  0  0  0  0  0  0  0  0  0  0  0
    1.8800  -14.8197   28.4033 H   0  0  0  0  0  0  0  0  0  0  0  0
    3.9657  -14.2937   25.3496 H   0  0  0  0  0  0  0  0  0  0  0  0
    6.2971  -13.3080   26.1963 H   0  0  0  0  0  0  0  0  0  0  0  0
    6.6795  -14.4749   28.4515 H   0  0  0  0  0  0  0  0  0  0  0  0
   -3.0261  -16.1946   30.5317 H   0  0  0  0  0  0  0  0  0  0  0  0
   -4.6381  -17.6354   32.9600 H   0  0  0  0  0  0  0  0  0  0  0  0
   -6.8084  -17.7420   34.5231 H   0  0  0  0  0  0  0  0  0  0  0  0
   -9.6453  -16.1207   32.6069 H   0  0  0  0  0  0  0  0  0  0  0  0
   -7.7651  -14.6411   34.4894 H   0  0  0  0  0  0  0  0  0  0  0  0
   -8.5026  -14.0263   32.9927 H   0  0  0  0  0  0  0  0  0  0  0  0
   -9.6808  -13.5959   35.3986 H   0  0  0  0  0  0  0  0  0  0  0  0
  -10.6629  -13.9474   33.9721 H   0  0  0  0  0  0  0  0  0  0  0  0
  -10.3260  -15.6441   36.3405 H   0  0  0  0  0  0  0  0  0  0  0  0
  -11.4181  -15.8460   34.9687 H   0  0  0  0  0  0  0  0  0  0  0  0
  -10.0127  -17.6765   34.5089 H   0  0  0  0  0  0  0  0  0  0  0  0
   -8.6810  -16.9711   35.4151 H   0  0  0  0  0  0  0  0  0  0  0  0
  1  2  1  0
  2  3  1  0
  3  4  1  0
  4  5  1  0
  5  6  1  0
  6  7  2  0
  6  8  1  0
  8  9  1  0
  9 10  2  0
 10 11  1  0
 11 12  1  0
  3 13  1  0
 13 14  1  0
 14 15  2  0
 14 16  1  0
 16 17  1  0
 17 18  2  0
 18 19  1  0
 19 20  1  0
 20 21  1  0
 21 22  1  0
 22 23  1  0
 23 24  1  0
 19 25  1  0
 12  8  2  0
 25 16  2  0
 24 20  1  0
  1 26  1  0
  1 27  1  0
  1 28  1  0
  2 29  1  0
  2 30  1  0
  3 31  1  0
  4 32  1  0
  4 33  1  0
  5 34  1  0
  9 35  1  0
 10 36  1  0
 11 37  1  0
 13 38  1  0
 17 39  1  0
 18 40  1  0
 20 41  1  0
 21 42  1  0
 21 43  1  0
 22 44  1  0
 22 45  1  0
 23 46  1  0
 23 47  1  0
 24 48  1  0
 24 49  1  0
M  END
>  <Energy>  (974) 
525.27536885850282

>  <compound_id>  (974) 
18698

>  <target_id>  (974) 
1

>  <reference_id>  (974) 
81

>  <inspiration_ids>  (974) 
[123, 81]

>  <energy_score>  (974) 
409.33176217605194

>  <distance_score>  (974) 
15.3193200610361

>  <path>  (974) 
/opt/xchem-fragalysis-2/maxwin/BulkDock/SCRATCH/511024/C18698-P81/C18698-P81.minimised.mol

>  <scratch_subdir>  (974) 
/opt/xchem-fragalysis-2/maxwin/BulkDock/SCRATCH/511024/C18698-P81

>  <fragmenstein_runtime>  (974) 
60.20222020149231

>  <fragmenstein_outcome>  (974) 
too moved

>  <fragmenstein_mode>  (974) 
expansion

>  <fragmenstein_error>  (974) 


$$$$
C28366-P123
     RDKit          3D

 49 51  0  0  0  0  0  0  0  0999 V2000
   -1.2107  -19.0594   18.0055 C   0  0  0  0  0  0  0  0  0  0  0  0
    0.1045  -18.5664   18.6162 C   0  0  0  0  0  0  0  0  0  0  0  0
   -0.0984  -17.4319   19.7611 C   0  0  0  0  0  0  0  0  0  0  0  0
   -0.2885  -18.3625   20.9581 C   0  0  0  0  0  0  0  0  0  0  0  0
   -1.4812  -19.1825   21.1951 N   0  0  0  0  0  0  0  0  0  0  0  0
   -1.6572  -20.3950   21.9570 C   0  0  0  0  0  0  0  0  0  0  0  0
   -0.8600  -21.0817   22.5220 O   0  0  0  0  0  0  0  0  0  0  0  0
   -3.0709  -20.8068   22.1574 C   0  0  0  0  0  0  0  0  0  0  0  0
   -4.3180  -20.1672   21.9570 C   0  0  0  0  0  0  0  0  0  0  0  0
   -5.3644  -20.8944   22.3628 N   0  0  0  0  0  0  0  0  0  0  0  0
   -4.8083  -22.0302   22.8127 N   0  0  0  0  0  0  0  0  0  0  0  0
   -3.4502  -22.0049   22.7591 C   0  0  0  0  0  0  0  0  0  0  0  0
    1.0993  -15.9821   19.7939 N   0  0  0  0  0  0  0  0  0  0  0  0
    2.2689  -15.2437   18.3901 C   0  0  0  0  0  0  0  0  0  0  0  0
    2.2797  -15.7485   17.3151 O   0  0  0  0  0  0  0  0  0  0  0  0
    3.3692  -14.0938   18.4128 C   0  0  0  0  0  0  0  0  0  0  0  0
    4.8412  -14.3067   18.2048 C   0  0  0  0  0  0  0  0  0  0  0  0
    5.4164  -13.2298   17.5841 C   0  0  0  0  0  0  0  0  0  0  0  0
    4.3564  -12.5665   17.0664 N   0  0  0  0  0  0  0  0  0  0  0  0
    4.4151  -11.7066   15.8902 C   0  0  0  0  0  0  0  0  0  0  0  0
    5.8019  -11.1388   15.5490 C   0  0  0  0  0  0  0  0  0  0  0  0
    5.4929  -10.0336   14.5549 C   0  0  0  0  0  0  0  0  0  0  0  0
    4.2789   -9.3557   15.1631 C   0  0  0  0  0  0  0  0  0  0  0  0
    3.5043  -10.4664   15.8768 C   0  0  0  0  0  0  0  0  0  0  0  0
    3.1650  -13.1161   17.4392 N   0  0  0  0  0  0  0  0  0  0  0  0
   -1.7031  -19.7871   18.6562 H   0  0  0  0  0  0  0  0  0  0  0  0
   -1.9193  -18.2498   17.8165 H   0  0  0  0  0  0  0  0  0  0  0  0
   -1.0103  -19.5675   17.0564 H   0  0  0  0  0  0  0  0  0  0  0  0
    0.5802  -19.4657   19.0358 H   0  0  0  0  0  0  0  0  0  0  0  0
    0.8114  -18.3101   17.8343 H   0  0  0  0  0  0  0  0  0  0  0  0
   -1.0695  -16.9191   19.6460 H   0  0  0  0  0  0  0  0  0  0  0  0
   -0.3108  -17.6372   21.7104 H   0  0  0  0  0  0  0  0  0  0  0  0
    0.5371  -19.0569   21.1024 H   0  0  0  0  0  0  0  0  0  0  0  0
   -2.3679  -18.9163   20.7893 H   0  0  0  0  0  0  0  0  0  0  0  0
   -4.5158  -19.1885   21.5402 H   0  0  0  0  0  0  0  0  0  0  0  0
   -5.4142  -22.7775   23.1390 H   0  0  0  0  0  0  0  0  0  0  0  0
   -2.8554  -22.8315   23.1240 H   0  0  0  0  0  0  0  0  0  0  0  0
    1.2728  -15.4990   20.6523 H   0  0  0  0  0  0  0  0  0  0  0  0
    5.3930  -15.1980   18.4708 H   0  0  0  0  0  0  0  0  0  0  0  0
    6.4417  -13.0248   17.3174 H   0  0  0  0  0  0  0  0  0  0  0  0
    4.1075  -12.3577   15.0582 H   0  0  0  0  0  0  0  0  0  0  0  0
    6.4675  -11.8935   15.1178 H   0  0  0  0  0  0  0  0  0  0  0  0
    6.2874  -10.7209   16.4394 H   0  0  0  0  0  0  0  0  0  0  0  0
    6.3307   -9.3446   14.4176 H   0  0  0  0  0  0  0  0  0  0  0  0
    5.2387  -10.4613   13.5779 H   0  0  0  0  0  0  0  0  0  0  0  0
    4.5993   -8.6039   15.8946 H   0  0  0  0  0  0  0  0  0  0  0  0
    3.6708   -8.8459   14.4098 H   0  0  0  0  0  0  0  0  0  0  0  0
    2.5789  -10.6889   15.3336 H   0  0  0  0  0  0  0  0  0  0  0  0
    3.2227  -10.1203   16.8722 H   0  0  0  0  0  0  0  0  0  0  0  0
  1  2  1  0
  2  3  1  0
  3  4  1  0
  4  5  1  0
  5  6  1  0
  6  7  2  0
  6  8  1  0
  8  9  1  0
  9 10  2  0
 10 11  1  0
 11 12  1  0
  3 13  1  0
 13 14  1  0
 14 15  2  0
 14 16  1  0
 16 17  1  0
 17 18  2  0
 18 19  1  0
 19 20  1  0
 20 21  1  0
 21 22  1  0
 22 23  1  0
 23 24  1  0
 19 25  1  0
 12  8  2  0
 25 16  2  0
 24 20  1  0
  1 26  1  0
  1 27  1  0
  1 28  1  0
  2 29  1  0
  2 30  1  0
  3 31  1  0
  4 32  1  0
  4 33  1  0
  5 34  1  0
  9 35  1  0
 11 36  1  0
 12 37  1  0
 13 38  1  0
 17 39  1  0
 18 40  1  0
 20 41  1  0
 21 42  1  0
 21 43  1  0
 22 44  1  0
 22 45  1  0
 23 46  1  0
 23 47  1  0
 24 48  1  0
 24 49  1  0
M  END
>  <Energy>  (975) 
285.15878101099719

>  <compound_id>  (975) 
28366

>  <target_id>  (975) 
1

>  <reference_id>  (975) 
123

>  <inspiration_ids>  (975) 
[123, 81]

>  <energy_score>  (975) 
213.64431303116856

>  <distance_score>  (975) 
14.244108973208514

>  <path>  (975) 
/opt/xchem-fragalysis-2/maxwin/BulkDock/SCRATCH/511024/C28366-P123/C28366-P123.minimised.mol

>  <scratch_subdir>  (975) 
/opt/xchem-fragalysis-2/maxwin/BulkDock/SCRATCH/511024/C28366-P123

>  <fragmenstein_runtime>  (975) 
49.59605836868286

>  <fragmenstein_outcome>  (975) 
too moved

>  <fragmenstein_mode>  (975) 
expansion

>  <fragmenstein_error>  (975) 


$$$$
C28366-P81
     RDKit          3D

 49 51  0  0  0  0  0  0  0  0999 V2000
    8.1979  -15.6059   28.2950 C   0  0  0  0  0  0  0  0  0  0  0  0
    7.1468  -14.6423   28.8294 C   0  0  0  0  0  0  0  0  0  0  0  0
    6.2013  -14.0709   27.7626 C   0  0  0  0  0  0  0  0  0  0  0  0
    5.3375  -15.1606   27.0517 C   0  0  0  0  0  0  0  0  0  0  0  0
    4.2933  -15.8761   27.8114 N   0  0  0  0  0  0  0  0  0  0  0  0
    3.7748  -17.2211   27.6744 C   0  0  0  0  0  0  0  0  0  0  0  0
    4.1183  -18.1186   26.9621 O   0  0  0  0  0  0  0  0  0  0  0  0
    2.5364  -17.5098   28.4894 C   0  0  0  0  0  0  0  0  0  0  0  0
    1.8157  -16.8172   29.5016 C   0  0  0  0  0  0  0  0  0  0  0  0
    0.7173  -17.4549   29.9345 N   0  0  0  0  0  0  0  0  0  0  0  0
    0.7093  -18.5870   29.2166 N   0  0  0  0  0  0  0  0  0  0  0  0
    1.7609  -18.6647   28.3500 C   0  0  0  0  0  0  0  0  0  0  0  0
    6.9452  -13.1789   26.8215 N   0  0  0  0  0  0  0  0  0  0  0  0
    7.0256  -11.7301   26.7466 C   0  0  0  0  0  0  0  0  0  0  0  0
    6.4565  -10.8853   27.3757 O   0  0  0  0  0  0  0  0  0  0  0  0
    7.9157  -11.2064   25.5973 C   0  0  0  0  0  0  0  0  0  0  0  0
    8.8609  -11.8631   24.7526 C   0  0  0  0  0  0  0  0  0  0  0  0
    9.3647  -10.9040   23.8970 C   0  0  0  0  0  0  0  0  0  0  0  0
    8.7319   -9.7406   24.2185 N   0  0  0  0  0  0  0  0  0  0  0  0
    9.0325   -8.4123   23.6953 C   0  0  0  0  0  0  0  0  0  0  0  0
    9.1075   -8.3597   22.1645 C   0  0  0  0  0  0  0  0  0  0  0  0
    7.6538   -8.2455   21.7203 C   0  0  0  0  0  0  0  0  0  0  0  0
    6.9152   -7.5644   22.8720 C   0  0  0  0  0  0  0  0  0  0  0  0
    7.9563   -7.3524   23.9687 C   0  0  0  0  0  0  0  0  0  0  0  0
    7.8430   -9.9036   25.2182 N   0  0  0  0  0  0  0  0  0  0  0  0
    8.8131  -15.1405   27.5192 H   0  0  0  0  0  0  0  0  0  0  0  0
    8.8640  -15.9167   29.1067 H   0  0  0  0  0  0  0  0  0  0  0  0
    7.7419  -16.5098   27.8814 H   0  0  0  0  0  0  0  0  0  0  0  0
    7.6622  -13.8137   29.3312 H   0  0  0  0  0  0  0  0  0  0  0  0
    6.5579  -15.1567   29.5983 H   0  0  0  0  0  0  0  0  0  0  0  0
    5.5051  -13.4042   28.2876 H   0  0  0  0  0  0  0  0  0  0  0  0
    5.9745  -15.9168   26.5807 H   0  0  0  0  0  0  0  0  0  0  0  0
    4.8006  -14.6830   26.2250 H   0  0  0  0  0  0  0  0  0  0  0  0
    3.7056  -15.3599   28.4522 H   0  0  0  0  0  0  0  0  0  0  0  0
    2.0474  -15.8606   29.9501 H   0  0  0  0  0  0  0  0  0  0  0  0
   -0.0388  -19.2571   29.3677 H   0  0  0  0  0  0  0  0  0  0  0  0
    1.8844  -19.5183   27.6966 H   0  0  0  0  0  0  0  0  0  0  0  0
    7.6305  -13.5802   26.1957 H   0  0  0  0  0  0  0  0  0  0  0  0
    9.1686  -12.8990   24.7758 H   0  0  0  0  0  0  0  0  0  0  0  0
   10.1252  -10.9604   23.1308 H   0  0  0  0  0  0  0  0  0  0  0  0
    9.9874   -8.1264   24.1509 H   0  0  0  0  0  0  0  0  0  0  0  0
    9.6505   -7.4570   21.8559 H   0  0  0  0  0  0  0  0  0  0  0  0
    9.6070   -9.2136   21.6990 H   0  0  0  0  0  0  0  0  0  0  0  0
    7.2371   -9.2445   21.5497 H   0  0  0  0  0  0  0  0  0  0  0  0
    7.5596   -7.6833   20.7865 H   0  0  0  0  0  0  0  0  0  0  0  0
    6.1046   -8.2096   23.2292 H   0  0  0  0  0  0  0  0  0  0  0  0
    6.4670   -6.6149   22.5624 H   0  0  0  0  0  0  0  0  0  0  0  0
    8.3967   -6.3534   23.8528 H   0  0  0  0  0  0  0  0  0  0  0  0
    7.5153   -7.3934   24.9690 H   0  0  0  0  0  0  0  0  0  0  0  0
  1  2  1  0
  2  3  1  0
  3  4  1  0
  4  5  1  0
  5  6  1  0
  6  7  2  0
  6  8  1  0
  8  9  1  0
  9 10  2  0
 10 11  1  0
 11 12  1  0
  3 13  1  0
 13 14  1  0
 14 15  2  0
 14 16  1  0
 16 17  1  0
 17 18  2  0
 18 19  1  0
 19 20  1  0
 20 21  1  0
 21 22  1  0
 22 23  1  0
 23 24  1  0
 19 25  1  0
 12  8  2  0
 25 16  2  0
 24 20  1  0
  1 26  1  0
  1 27  1  0
  1 28  1  0
  2 29  1  0
  2 30  1  0
  3 31  1  0
  4 32  1  0
  4 33  1  0
  5 34  1  0
  9 35  1  0
 11 36  1  0
 12 37  1  0
 13 38  1  0
 17 39  1  0
 18 40  1  0
 20 41  1  0
 21 42  1  0
 21 43  1  0
 22 44  1  0
 22 45  1  0
 23 46  1  0
 23 47  1  0
 24 48  1  0
 24 49  1  0
M  END
>  <Energy>  (976) 
66.374506418339735

>  <compound_id>  (976) 
28366

>  <target_id>  (976) 
1

>  <reference_id>  (976) 
81

>  <inspiration_ids>  (976) 
[123, 81]

>  <energy_score>  (976) 
-5.139961561485279

>  <distance_score>  (976) 
15.943616154720551

>  <path>  (976) 
/opt/xchem-fragalysis-2/maxwin/BulkDock/SCRATCH/511024/C28366-P81/C28366-P81.minimised.mol

>  <scratch_subdir>  (976) 
/opt/xchem-fragalysis-2/maxwin/BulkDock/SCRATCH/511024/C28366-P81

>  <fragmenstein_runtime>  (976) 
57.492342710494995

>  <fragmenstein_outcome>  (976) 
too moved

>  <fragmenstein_mode>  (976) 
expansion

>  <fragmenstein_error>  (976) 


$$$$
C46486-P123
     RDKit          3D

 44 47  0  0  0  0  0  0  0  0999 V2000
    6.5965  -11.2683   25.0652 O   0  0  0  0  0  0  0  0  0  0  0  0
    7.2951  -12.4632   24.1385 S   0  0  0  0  0  0  0  0  0  0  0  0
    6.0832  -13.9115   24.0434 C   0  0  0  0  0  0  0  0  0  0  0  0
    5.8388  -14.7046   25.3489 C   0  0  0  0  0  0  0  0  0  0  0  0
    5.7992  -14.2100   26.6747 C   0  0  0  0  0  0  0  0  0  0  0  0
    5.5958  -15.2903   27.4917 C   0  0  0  0  0  0  0  0  0  0  0  0
    5.5994  -16.3817   26.6860 N   0  0  0  0  0  0  0  0  0  0  0  0
    5.8177  -17.7539   27.1089 C   0  0  0  0  0  0  0  0  0  0  0  0
    6.1074  -17.9725   28.6018 C   0  0  0  0  0  0  0  0  0  0  0  0
    6.6213  -19.4044   28.6661 C   0  0  0  0  0  0  0  0  0  0  0  0
    7.3336  -19.6377   27.3364 C   0  0  0  0  0  0  0  0  0  0  0  0
    7.0729  -18.3910   26.4944 C   0  0  0  0  0  0  0  0  0  0  0  0
    5.6178  -16.0445   25.3604 N   0  0  0  0  0  0  0  0  0  0  0  0
    7.2245  -11.8948   22.3561 C   0  0  0  0  0  0  0  0  0  0  0  0
    8.0105  -10.6426   22.0096 C   0  0  0  0  0  0  0  0  0  0  0  0
    9.0819  -10.6943   21.1783 N   0  0  0  0  0  0  0  0  0  0  0  0
    9.4864   -9.4059   21.0225 N   0  0  0  0  0  0  0  0  0  0  0  0
    8.6766   -8.5527   21.6721 C   0  0  0  0  0  0  0  0  0  0  0  0
    7.7341   -9.2991   22.3152 C   0  0  0  0  0  0  0  0  0  0  0  0
    6.8048   -8.4531   23.0843 C   0  0  0  0  0  0  0  0  0  0  0  0
    7.1724   -7.0165   22.5558 C   0  0  0  0  0  0  0  0  0  0  0  0
    8.5922   -7.1056   21.8899 C   0  0  0  0  0  0  0  0  0  0  0  0
    5.1328  -13.5058   23.6832 H   0  0  0  0  0  0  0  0  0  0  0  0
    6.4983  -14.5866   23.2882 H   0  0  0  0  0  0  0  0  0  0  0  0
    5.9648  -13.1924   27.0009 H   0  0  0  0  0  0  0  0  0  0  0  0
    5.5811  -15.3597   28.5673 H   0  0  0  0  0  0  0  0  0  0  0  0
    4.9174  -18.3137   26.8315 H   0  0  0  0  0  0  0  0  0  0  0  0
    5.2325  -17.8204   29.2371 H   0  0  0  0  0  0  0  0  0  0  0  0
    6.8938  -17.2938   28.9571 H   0  0  0  0  0  0  0  0  0  0  0  0
    7.2852  -19.5599   29.5220 H   0  0  0  0  0  0  0  0  0  0  0  0
    5.7836  -20.1044   28.7650 H   0  0  0  0  0  0  0  0  0  0  0  0
    6.9276  -20.5293   26.8454 H   0  0  0  0  0  0  0  0  0  0  0  0
    8.4077  -19.7986   27.4750 H   0  0  0  0  0  0  0  0  0  0  0  0
    7.9283  -17.7070   26.5760 H   0  0  0  0  0  0  0  0  0  0  0  0
    6.9678  -18.6404   25.4363 H   0  0  0  0  0  0  0  0  0  0  0  0
    6.1663  -11.7292   22.1265 H   0  0  0  0  0  0  0  0  0  0  0  0
    7.5775  -12.7406   21.7565 H   0  0  0  0  0  0  0  0  0  0  0  0
   10.3177   -9.2258   20.4714 H   0  0  0  0  0  0  0  0  0  0  0  0
    7.0089   -8.5233   24.1572 H   0  0  0  0  0  0  0  0  0  0  0  0
    5.7540   -8.6869   22.8941 H   0  0  0  0  0  0  0  0  0  0  0  0
    6.4404   -6.7236   21.7913 H   0  0  0  0  0  0  0  0  0  0  0  0
    7.1357   -6.2639   23.3498 H   0  0  0  0  0  0  0  0  0  0  0  0
    8.6360   -6.5190   20.9696 H   0  0  0  0  0  0  0  0  0  0  0  0
    9.3643   -6.7632   22.5855 H   0  0  0  0  0  0  0  0  0  0  0  0
  1  2  1  0
  2  3  1  0
  3  4  1  0
  4  5  1  0
  5  6  2  0
  6  7  1  0
  7  8  1  0
  8  9  1  0
  9 10  1  0
 10 11  1  0
 11 12  1  0
  7 13  1  0
  2 14  1  0
 14 15  1  0
 15 16  2  0
 16 17  1  0
 17 18  1  0
 18 19  2  0
 19 20  1  0
 20 21  1  0
 21 22  1  0
 13  4  2  0
 19 15  1  0
 12  8  1  0
 22 18  1  0
  3 23  1  0
  3 24  1  0
  5 25  1  0
  6 26  1  0
  8 27  1  0
  9 28  1  0
  9 29  1  0
 10 30  1  0
 10 31  1  0
 11 32  1  0
 11 33  1  0
 12 34  1  0
 12 35  1  0
 14 36  1  0
 14 37  1  0
 17 38  1  0
 20 39  1  0
 20 40  1  0
 21 41  1  0
 21 42  1  0
 22 43  1  0
 22 44  1  0
M  CHG  2   1  -1   2   1
M  END
>  <Energy>  (977) 
79.439639593706247

>  <compound_id>  (977) 
46486

>  <target_id>  (977) 
1

>  <reference_id>  (977) 
123

>  <inspiration_ids>  (977) 
[123, 81]

>  <energy_score>  (977) 
-30.390488888438767

>  <distance_score>  (977) 
16.668640621427276

>  <path>  (977) 
/opt/xchem-fragalysis-2/maxwin/BulkDock/SCRATCH/511024/C46486-P123/C46486-P123.minimised.mol

>  <scratch_subdir>  (977) 
/opt/xchem-fragalysis-2/maxwin/BulkDock/SCRATCH/511024/C46486-P123

>  <fragmenstein_runtime>  (977) 
42.78662633895874

>  <fragmenstein_outcome>  (977) 
too moved

>  <fragmenstein_mode>  (977) 
expansion

>  <fragmenstein_error>  (977) 


$$$$
C46486-P81
     RDKit          3D

 44 47  0  0  0  0  0  0  0  0999 V2000
    5.3751  -12.7163   23.2083 O   0  0  0  0  0  0  0  0  0  0  0  0
    6.9309  -12.8858   23.7715 S   0  0  0  0  0  0  0  0  0  0  0  0
    6.8334  -13.0833   25.6171 C   0  0  0  0  0  0  0  0  0  0  0  0
    6.1331  -14.3397   26.1674 C   0  0  0  0  0  0  0  0  0  0  0  0
    5.1663  -15.1965   25.5894 C   0  0  0  0  0  0  0  0  0  0  0  0
    4.8826  -16.1630   26.5349 C   0  0  0  0  0  0  0  0  0  0  0  0
    5.6883  -15.8855   27.5984 N   0  0  0  0  0  0  0  0  0  0  0  0
    5.9898  -16.7865   28.7026 C   0  0  0  0  0  0  0  0  0  0  0  0
    6.4284  -16.0917   30.0052 C   0  0  0  0  0  0  0  0  0  0  0  0
    7.9265  -16.3413   30.1048 C   0  0  0  0  0  0  0  0  0  0  0  0
    8.0768  -17.7420   29.5401 C   0  0  0  0  0  0  0  0  0  0  0  0
    7.1401  -17.7473   28.3394 C   0  0  0  0  0  0  0  0  0  0  0  0
    6.4216  -14.7642   27.4134 N   0  0  0  0  0  0  0  0  0  0  0  0
    7.7554  -11.2002   23.7015 C   0  0  0  0  0  0  0  0  0  0  0  0
    8.0028  -10.6016   22.3286 C   0  0  0  0  0  0  0  0  0  0  0  0
    8.9232   -9.6096   22.1852 N   0  0  0  0  0  0  0  0  0  0  0  0
    8.8753   -9.2547   20.8740 N   0  0  0  0  0  0  0  0  0  0  0  0
    7.9591   -9.9762   20.2026 C   0  0  0  0  0  0  0  0  0  0  0  0
    7.3844  -10.8355   21.0909 C   0  0  0  0  0  0  0  0  0  0  0  0
    6.3399  -11.6593   20.4501 C   0  0  0  0  0  0  0  0  0  0  0  0
    6.5826  -11.3692   18.9292 C   0  0  0  0  0  0  0  0  0  0  0  0
    7.4421  -10.0646   18.8304 C   0  0  0  0  0  0  0  0  0  0  0  0
    7.8713  -13.0797   25.9689 H   0  0  0  0  0  0  0  0  0  0  0  0
    6.3368  -12.1932   26.0126 H   0  0  0  0  0  0  0  0  0  0  0  0
    4.7536  -15.0907   24.5967 H   0  0  0  0  0  0  0  0  0  0  0  0
    4.2216  -17.0176   26.5369 H   0  0  0  0  0  0  0  0  0  0  0  0
    5.0776  -17.3640   28.8865 H   0  0  0  0  0  0  0  0  0  0  0  0
    5.9334  -16.5790   30.8549 H   0  0  0  0  0  0  0  0  0  0  0  0
    6.1869  -15.0255   30.0540 H   0  0  0  0  0  0  0  0  0  0  0  0
    8.4770  -15.6197   29.4901 H   0  0  0  0  0  0  0  0  0  0  0  0
    8.2915  -16.2662   31.1330 H   0  0  0  0  0  0  0  0  0  0  0  0
    9.1093  -17.9717   29.2615 H   0  0  0  0  0  0  0  0  0  0  0  0
    7.7487  -18.4850   30.2766 H   0  0  0  0  0  0  0  0  0  0  0  0
    6.7698  -18.7568   28.1310 H   0  0  0  0  0  0  0  0  0  0  0  0
    7.6837  -17.4114   27.4477 H   0  0  0  0  0  0  0  0  0  0  0  0
    7.1165  -10.5222   24.2773 H   0  0  0  0  0  0  0  0  0  0  0  0
    8.7092  -11.3179   24.2269 H   0  0  0  0  0  0  0  0  0  0  0  0
    9.5005   -8.5261   20.5483 H   0  0  0  0  0  0  0  0  0  0  0  0
    6.4459  -12.7277   20.6537 H   0  0  0  0  0  0  0  0  0  0  0  0
    5.3410  -11.3221   20.7443 H   0  0  0  0  0  0  0  0  0  0  0  0
    5.6446  -11.2884   18.3707 H   0  0  0  0  0  0  0  0  0  0  0  0
    7.1500  -12.2029   18.4945 H   0  0  0  0  0  0  0  0  0  0  0  0
    8.2220  -10.1799   18.0756 H   0  0  0  0  0  0  0  0  0  0  0  0
    6.8057   -9.2082   18.5890 H   0  0  0  0  0  0  0  0  0  0  0  0
  1  2  1  0
  2  3  1  0
  3  4  1  0
  4  5  1  0
  5  6  2  0
  6  7  1  0
  7  8  1  0
  8  9  1  0
  9 10  1  0
 10 11  1  0
 11 12  1  0
  7 13  1  0
  2 14  1  0
 14 15  1  0
 15 16  2  0
 16 17  1  0
 17 18  1  0
 18 19  2  0
 19 20  1  0
 20 21  1  0
 21 22  1  0
 13  4  2  0
 19 15  1  0
 12  8  1  0
 22 18  1  0
  3 23  1  0
  3 24  1  0
  5 25  1  0
  6 26  1  0
  8 27  1  0
  9 28  1  0
  9 29  1  0
 10 30  1  0
 10 31  1  0
 11 32  1  0
 11 33  1  0
 12 34  1  0
 12 35  1  0
 14 36  1  0
 14 37  1  0
 17 38  1  0
 20 39  1  0
 20 40  1  0
 21 41  1  0
 21 42  1  0
 22 43  1  0
 22 44  1  0
M  CHG  2   1  -1   2   1
M  END
>  <Energy>  (978) 
76.578846028802161

>  <compound_id>  (978) 
46486

>  <target_id>  (978) 
1

>  <reference_id>  (978) 
81

>  <inspiration_ids>  (978) 
[123, 81]

>  <energy_score>  (978) 
-33.25128245335122

>  <distance_score>  (978) 
16.48999767583563

>  <path>  (978) 
/opt/xchem-fragalysis-2/maxwin/BulkDock/SCRATCH/511024/C46486-P81/C46486-P81.minimised.mol

>  <scratch_subdir>  (978) 
/opt/xchem-fragalysis-2/maxwin/BulkDock/SCRATCH/511024/C46486-P81

>  <fragmenstein_runtime>  (978) 
46.480281352996826

>  <fragmenstein_outcome>  (978) 
too moved

>  <fragmenstein_mode>  (978) 
expansion

>  <fragmenstein_error>  (978) 


$$$$
C28367-P123
     RDKit          3D

 47 49  0  0  0  0  0  0  0  0999 V2000
   -4.8910  -20.0073   26.3912 O   0  0  0  0  0  0  0  0  0  0  0  0
   -5.8463  -19.3267   26.6161 C   0  0  0  0  0  0  0  0  0  0  0  0
   -5.7134  -17.5028   26.1128 N   0  0  0  0  0  0  0  0  0  0  0  0
   -4.2947  -16.4703   25.1275 C   0  0  0  0  0  0  0  0  0  0  0  0
   -2.4010  -15.5490   24.6710 C   0  0  0  0  0  0  0  0  0  0  0  0
   -2.1867  -17.1755   25.4214 O   0  0  0  0  0  0  0  0  0  0  0  0
   -0.7793  -14.2690   23.8113 C   0  0  0  0  0  0  0  0  0  0  0  0
   -0.3132  -12.5433   22.6239 N   0  0  0  0  0  0  0  0  0  0  0  0
    1.2615  -11.3908   22.4599 C   0  0  0  0  0  0  0  0  0  0  0  0
    2.1808  -11.8288   23.1238 O   0  0  0  0  0  0  0  0  0  0  0  0
    1.9081   -9.5541   21.4601 C   0  0  0  0  0  0  0  0  0  0  0  0
    3.2985   -8.2449   22.3922 C   0  0  0  0  0  0  0  0  0  0  0  0
    4.9161   -7.8498   21.2283 C   0  0  0  0  0  0  0  0  0  0  0  0
    4.3903   -8.8619   19.3831 N   0  0  0  0  0  0  0  0  0  0  0  0
    4.8265   -8.3776   18.0327 C   0  0  0  0  0  0  0  0  0  0  0  0
    6.3081   -8.2527   18.1194 C   0  0  0  0  0  0  0  0  0  0  0  0
    6.8049   -9.6801   17.8756 C   0  0  0  0  0  0  0  0  0  0  0  0
    5.9570  -10.1343   16.7073 C   0  0  0  0  0  0  0  0  0  0  0  0
    4.6549   -9.3480   16.8534 C   0  0  0  0  0  0  0  0  0  0  0  0
    2.4095   -9.5129   19.6302 N   0  0  0  0  0  0  0  0  0  0  0  0
   -7.3020  -20.4696   27.4428 C   0  0  0  0  0  0  0  0  0  0  0  0
   -9.1775  -20.8055   27.6645 C   0  0  0  0  0  0  0  0  0  0  0  0
   -9.6432  -22.0041   28.1894 N   0  0  0  0  0  0  0  0  0  0  0  0
   -8.4923  -22.7229   27.9776 N   0  0  0  0  0  0  0  0  0  0  0  0
   -7.2680  -22.0704   27.6045 C   0  0  0  0  0  0  0  0  0  0  0  0
   -6.6107  -17.0625   26.2781 H   0  0  0  0  0  0  0  0  0  0  0  0
   -4.7864  -16.5090   24.1578 H   0  0  0  0  0  0  0  0  0  0  0  0
   -3.9208  -17.3351   25.6175 H   0  0  0  0  0  0  0  0  0  0  0  0
   -2.3390  -14.9864   25.6394 H   0  0  0  0  0  0  0  0  0  0  0  0
   -2.4080  -17.0794   26.3788 H   0  0  0  0  0  0  0  0  0  0  0  0
    0.2431  -14.4080   24.1468 H   0  0  0  0  0  0  0  0  0  0  0  0
   -1.0743  -13.7569   24.7689 H   0  0  0  0  0  0  0  0  0  0  0  0
   -1.0892  -12.0746   22.1129 H   0  0  0  0  0  0  0  0  0  0  0  0
    2.8834   -7.4841   23.0661 H   0  0  0  0  0  0  0  0  0  0  0  0
    5.4734   -6.9303   20.9812 H   0  0  0  0  0  0  0  0  0  0  0  0
    4.3020   -7.4348   17.8411 H   0  0  0  0  0  0  0  0  0  0  0  0
    6.5719   -7.5609   17.3166 H   0  0  0  0  0  0  0  0  0  0  0  0
    6.6519   -7.8563   19.0763 H   0  0  0  0  0  0  0  0  0  0  0  0
    7.8698   -9.7717   17.6605 H   0  0  0  0  0  0  0  0  0  0  0  0
    6.6165  -10.3089   18.7537 H   0  0  0  0  0  0  0  0  0  0  0  0
    5.7922  -11.2162   16.7185 H   0  0  0  0  0  0  0  0  0  0  0  0
    6.4419   -9.8803   15.7576 H   0  0  0  0  0  0  0  0  0  0  0  0
    4.4724   -8.7859   15.9296 H   0  0  0  0  0  0  0  0  0  0  0  0
    3.8336  -10.0405   16.9861 H   0  0  0  0  0  0  0  0  0  0  0  0
   -9.3016  -19.8346   28.2250 H   0  0  0  0  0  0  0  0  0  0  0  0
   -8.6540  -23.6495   28.3167 H   0  0  0  0  0  0  0  0  0  0  0  0
   -6.3868  -22.6845   27.4606 H   0  0  0  0  0  0  0  0  0  0  0  0
  1  2  2  0
  2  3  1  0
  3  4  1  0
  4  5  1  0
  5  6  1  0
  5  7  1  0
  7  8  1  0
  8  9  1  0
  9 10  2  0
  9 11  1  0
 11 12  1  0
 12 13  2  0
 13 14  1  0
 14 15  1  0
 15 16  1  0
 16 17  1  0
 17 18  1  0
 18 19  1  0
 14 20  1  0
  2 21  1  0
 21 22  1  0
 22 23  2  0
 23 24  1  0
 24 25  1  0
 20 11  2  0
 25 21  2  0
 19 15  1  0
  3 26  1  0
  4 27  1  0
  4 28  1  0
  5 29  1  0
  6 30  1  0
  7 31  1  0
  7 32  1  0
  8 33  1  0
 12 34  1  0
 13 35  1  0
 15 36  1  0
 16 37  1  0
 16 38  1  0
 17 39  1  0
 17 40  1  0
 18 41  1  0
 18 42  1  0
 19 43  1  0
 19 44  1  0
 22 45  1  0
 24 46  1  0
 25 47  1  0
M  END
>  <Energy>  (979) 
2259.470791498301

>  <compound_id>  (979) 
28367

>  <target_id>  (979) 
1

>  <reference_id>  (979) 
123

>  <inspiration_ids>  (979) 
[123, 81]

>  <energy_score>  (979) 
2168.881730554803

>  <distance_score>  (979) 
10.7601417611981

>  <path>  (979) 
/opt/xchem-fragalysis-2/maxwin/BulkDock/SCRATCH/511024/C28367-P123/C28367-P123.minimised.mol

>  <scratch_subdir>  (979) 
/opt/xchem-fragalysis-2/maxwin/BulkDock/SCRATCH/511024/C28367-P123

>  <fragmenstein_runtime>  (979) 
30.111429452896118

>  <fragmenstein_outcome>  (979) 
too moved

>  <fragmenstein_mode>  (979) 
expansion

>  <fragmenstein_error>  (979) 


$$$$
C28367-P81
     RDKit          3D

 47 49  0  0  0  0  0  0  0  0999 V2000
   -2.8674  -20.2257   19.8209 O   0  0  0  0  0  0  0  0  0  0  0  0
   -2.2967  -20.5753   20.8114 C   0  0  0  0  0  0  0  0  0  0  0  0
   -1.0185  -20.1996   21.3336 N   0  0  0  0  0  0  0  0  0  0  0  0
   -0.0407  -19.1954   20.8774 C   0  0  0  0  0  0  0  0  0  0  0  0
   -0.2102  -17.9689   19.9269 C   0  0  0  0  0  0  0  0  0  0  0  0
   -1.6380  -17.7092   19.8636 O   0  0  0  0  0  0  0  0  0  0  0  0
    0.5653  -16.3048   20.2993 C   0  0  0  0  0  0  0  0  0  0  0  0
    2.0932  -15.1347   19.9335 N   0  0  0  0  0  0  0  0  0  0  0  0
    3.0132  -14.8632   18.4219 C   0  0  0  0  0  0  0  0  0  0  0  0
    2.7333  -15.3309   17.3574 O   0  0  0  0  0  0  0  0  0  0  0  0
    4.5394  -14.0076   18.3035 C   0  0  0  0  0  0  0  0  0  0  0  0
    5.7977  -14.6625   18.0188 C   0  0  0  0  0  0  0  0  0  0  0  0
    6.7095  -13.6883   17.6906 C   0  0  0  0  0  0  0  0  0  0  0  0
    6.0025  -12.5302   17.6810 N   0  0  0  0  0  0  0  0  0  0  0  0
    6.4750  -11.1994   17.3222 C   0  0  0  0  0  0  0  0  0  0  0  0
    7.8592  -11.1490   16.6585 C   0  0  0  0  0  0  0  0  0  0  0  0
    7.6081  -11.4373   15.1801 C   0  0  0  0  0  0  0  0  0  0  0  0
    6.1447  -11.0794   14.9268 C   0  0  0  0  0  0  0  0  0  0  0  0
    5.6197  -10.5194   16.2452 C   0  0  0  0  0  0  0  0  0  0  0  0
    4.7154  -12.7082   18.0509 N   0  0  0  0  0  0  0  0  0  0  0  0
   -3.0256  -21.4922   21.7736 C   0  0  0  0  0  0  0  0  0  0  0  0
   -2.7933  -21.8016   23.1548 C   0  0  0  0  0  0  0  0  0  0  0  0
   -3.7394  -22.5598   23.7202 N   0  0  0  0  0  0  0  0  0  0  0  0
   -4.5958  -22.7797   22.7095 N   0  0  0  0  0  0  0  0  0  0  0  0
   -4.2324  -22.1433   21.5519 C   0  0  0  0  0  0  0  0  0  0  0  0
   -0.8203  -20.7572   22.1505 H   0  0  0  0  0  0  0  0  0  0  0  0
    0.9128  -19.7081   20.7274 H   0  0  0  0  0  0  0  0  0  0  0  0
   -0.0346  -18.6994   21.8162 H   0  0  0  0  0  0  0  0  0  0  0  0
    0.0874  -18.2851   18.9194 H   0  0  0  0  0  0  0  0  0  0  0  0
   -2.0682  -18.5160   19.5099 H   0  0  0  0  0  0  0  0  0  0  0  0
    0.2028  -16.1198   21.2993 H   0  0  0  0  0  0  0  0  0  0  0  0
   -0.2493  -15.9244   19.7369 H   0  0  0  0  0  0  0  0  0  0  0  0
    2.4897  -14.5579   20.6764 H   0  0  0  0  0  0  0  0  0  0  0  0
    5.9888  -15.7213   18.0604 H   0  0  0  0  0  0  0  0  0  0  0  0
    7.7518  -13.7625   17.4245 H   0  0  0  0  0  0  0  0  0  0  0  0
    6.4838  -10.6235   18.2542 H   0  0  0  0  0  0  0  0  0  0  0  0
    8.2600  -10.1358   16.7490 H   0  0  0  0  0  0  0  0  0  0  0  0
    8.6093  -11.8130   17.0950 H   0  0  0  0  0  0  0  0  0  0  0  0
    7.7798  -12.4956   14.9545 H   0  0  0  0  0  0  0  0  0  0  0  0
    8.2832  -10.8533   14.5459 H   0  0  0  0  0  0  0  0  0  0  0  0
    5.5854  -11.9796   14.6464 H   0  0  0  0  0  0  0  0  0  0  0  0
    6.0353  -10.3568   14.1120 H   0  0  0  0  0  0  0  0  0  0  0  0
    5.7956   -9.4361   16.2719 H   0  0  0  0  0  0  0  0  0  0  0  0
    4.5436  -10.6753   16.3504 H   0  0  0  0  0  0  0  0  0  0  0  0
   -1.9783  -21.4737   23.7863 H   0  0  0  0  0  0  0  0  0  0  0  0
   -5.4128  -23.3604   22.8792 H   0  0  0  0  0  0  0  0  0  0  0  0
   -4.8587  -22.1937   20.6715 H   0  0  0  0  0  0  0  0  0  0  0  0
  1  2  2  0
  2  3  1  0
  3  4  1  0
  4  5  1  0
  5  6  1  0
  5  7  1  0
  7  8  1  0
  8  9  1  0
  9 10  2  0
  9 11  1  0
 11 12  1  0
 12 13  2  0
 13 14  1  0
 14 15  1  0
 15 16  1  0
 16 17  1  0
 17 18  1  0
 18 19  1  0
 14 20  1  0
  2 21  1  0
 21 22  1  0
 22 23  2  0
 23 24  1  0
 24 25  1  0
 20 11  2  0
 25 21  2  0
 19 15  1  0
  3 26  1  0
  4 27  1  0
  4 28  1  0
  5 29  1  0
  6 30  1  0
  7 31  1  0
  7 32  1  0
  8 33  1  0
 12 34  1  0
 13 35  1  0
 15 36  1  0
 16 37  1  0
 16 38  1  0
 17 39  1  0
 17 40  1  0
 18 41  1  0
 18 42  1  0
 19 43  1  0
 19 44  1  0
 22 45  1  0
 24 46  1  0
 25 47  1  0
M  END
>  <Energy>  (980) 
296.78888197528391

>  <compound_id>  (980) 
28367

>  <target_id>  (980) 
1

>  <reference_id>  (980) 
81

>  <inspiration_ids>  (980) 
[123, 81]

>  <energy_score>  (980) 
206.19982103177603

>  <distance_score>  (980) 
13.987503887861937

>  <path>  (980) 
/opt/xchem-fragalysis-2/maxwin/BulkDock/SCRATCH/511024/C28367-P81/C28367-P81.minimised.mol

>  <scratch_subdir>  (980) 
/opt/xchem-fragalysis-2/maxwin/BulkDock/SCRATCH/511024/C28367-P81

>  <fragmenstein_runtime>  (980) 
50.51214051246643

>  <fragmenstein_outcome>  (980) 
too moved

>  <fragmenstein_mode>  (980) 
expansion

>  <fragmenstein_error>  (980) 


$$$$
C28368-P123
     RDKit          3D

 50 52  0  0  0  0  0  0  0  0999 V2000
   -2.2493  -10.7619   17.2280 C   0  0  0  0  0  0  0  0  0  0  0  0
   -2.7930   -9.5241   18.0188 C   0  0  0  0  0  0  0  0  0  0  0  0
   -1.7252   -8.3630   18.4612 C   0  0  0  0  0  0  0  0  0  0  0  0
   -0.4653   -8.2054   17.6415 N   0  0  0  0  0  0  0  0  0  0  0  0
    0.4709   -7.1639   18.2106 C   0  0  0  0  0  0  0  0  0  0  0  0
    1.6528   -6.7929   17.3147 C   0  0  0  0  0  0  0  0  0  0  0  0
    3.0304   -7.1302   17.4575 C   0  0  0  0  0  0  0  0  0  0  0  0
    3.6903   -6.4494   16.4560 C   0  0  0  0  0  0  0  0  0  0  0  0
    2.7182   -5.7900   15.7569 N   0  0  0  0  0  0  0  0  0  0  0  0
    2.8903   -5.0473   14.5164 C   0  0  0  0  0  0  0  0  0  0  0  0
    1.6684   -4.2438   14.0523 C   0  0  0  0  0  0  0  0  0  0  0  0
    0.8103   -5.2211   13.2477 C   0  0  0  0  0  0  0  0  0  0  0  0
    1.7223   -6.3908   12.8833 C   0  0  0  0  0  0  0  0  0  0  0  0
    3.1227   -5.9764   13.3217 C   0  0  0  0  0  0  0  0  0  0  0  0
    1.4994   -5.9190   16.3081 N   0  0  0  0  0  0  0  0  0  0  0  0
   -4.0732   -9.8422   18.9062 N   0  0  0  0  0  0  0  0  0  0  0  0
   -3.0825  -10.6527   19.6679 C   0  0  0  0  0  0  0  0  0  0  0  0
   -5.2524  -10.6415   18.6129 C   0  0  0  0  0  0  0  0  0  0  0  0
   -5.5098  -11.3313   17.6627 O   0  0  0  0  0  0  0  0  0  0  0  0
   -6.2557  -10.6966   19.7020 C   0  0  0  0  0  0  0  0  0  0  0  0
   -7.4222  -11.5222   19.7847 C   0  0  0  0  0  0  0  0  0  0  0  0
   -7.9445  -11.6029   21.0207 N   0  0  0  0  0  0  0  0  0  0  0  0
   -7.1716  -10.7446   21.7209 N   0  0  0  0  0  0  0  0  0  0  0  0
   -6.2272  -10.1243   20.9477 C   0  0  0  0  0  0  0  0  0  0  0  0
   -1.6733  -10.4168   16.3621 H   0  0  0  0  0  0  0  0  0  0  0  0
   -1.5863  -11.4005   17.8119 H   0  0  0  0  0  0  0  0  0  0  0  0
   -3.0647  -11.3798   16.8407 H   0  0  0  0  0  0  0  0  0  0  0  0
   -3.3150   -8.9947   17.2028 H   0  0  0  0  0  0  0  0  0  0  0  0
   -1.4379   -8.4771   19.5102 H   0  0  0  0  0  0  0  0  0  0  0  0
   -2.2739   -7.4131   18.4139 H   0  0  0  0  0  0  0  0  0  0  0  0
    0.0434   -9.0874   17.7534 H   0  0  0  0  0  0  0  0  0  0  0  0
   -0.1025   -6.2477   18.4001 H   0  0  0  0  0  0  0  0  0  0  0  0
    0.8514   -7.5188   19.1760 H   0  0  0  0  0  0  0  0  0  0  0  0
    3.4683   -7.7766   18.2051 H   0  0  0  0  0  0  0  0  0  0  0  0
    4.7308   -6.4111   16.1688 H   0  0  0  0  0  0  0  0  0  0  0  0
    3.7404   -4.3775   14.6860 H   0  0  0  0  0  0  0  0  0  0  0  0
    2.0008   -3.4474   13.3780 H   0  0  0  0  0  0  0  0  0  0  0  0
    1.1088   -3.7670   14.8630 H   0  0  0  0  0  0  0  0  0  0  0  0
   -0.0422   -5.5751   13.8378 H   0  0  0  0  0  0  0  0  0  0  0  0
    0.4061   -4.7351   12.3533 H   0  0  0  0  0  0  0  0  0  0  0  0
    1.6846   -6.6229   11.8144 H   0  0  0  0  0  0  0  0  0  0  0  0
    1.4066   -7.2898   13.4258 H   0  0  0  0  0  0  0  0  0  0  0  0
    3.6044   -5.4174   12.5095 H   0  0  0  0  0  0  0  0  0  0  0  0
    3.7497   -6.8445   13.5476 H   0  0  0  0  0  0  0  0  0  0  0  0
   -2.1457  -10.2076   20.0051 H   0  0  0  0  0  0  0  0  0  0  0  0
   -2.9786  -11.6750   19.2948 H   0  0  0  0  0  0  0  0  0  0  0  0
   -3.5763  -10.8128   20.6295 H   0  0  0  0  0  0  0  0  0  0  0  0
   -7.8458  -12.1293   18.9934 H   0  0  0  0  0  0  0  0  0  0  0  0
   -7.3037  -10.6280   22.7236 H   0  0  0  0  0  0  0  0  0  0  0  0
   -5.5387   -9.4090   21.3631 H   0  0  0  0  0  0  0  0  0  0  0  0
  1  2  1  0
  2  3  1  0
  3  4  1  0
  4  5  1  0
  5  6  1  0
  6  7  1  0
  7  8  2  0
  8  9  1  0
  9 10  1  0
 10 11  1  0
 11 12  1  0
 12 13  1  0
 13 14  1  0
  9 15  1  0
  2 16  1  0
 16 17  1  0
 16 18  1  0
 18 19  2  0
 18 20  1  0
 20 21  1  0
 21 22  2  0
 22 23  1  0
 23 24  1  0
 15  6  2  0
 24 20  2  0
 14 10  1  0
  1 25  1  0
  1 26  1  0
  1 27  1  0
  2 28  1  0
  3 29  1  0
  3 30  1  0
  4 31  1  0
  5 32  1  0
  5 33  1  0
  7 34  1  0
  8 35  1  0
 10 36  1  0
 11 37  1  0
 11 38  1  0
 12 39  1  0
 12 40  1  0
 13 41  1  0
 13 42  1  0
 14 43  1  0
 14 44  1  0
 17 45  1  0
 17 46  1  0
 17 47  1  0
 21 48  1  0
 23 49  1  0
 24 50  1  0
M  END
>  <Energy>  (981) 
149.22538812046687

>  <compound_id>  (981) 
28368

>  <target_id>  (981) 
1

>  <reference_id>  (981) 
123

>  <inspiration_ids>  (981) 
[123, 81]

>  <energy_score>  (981) 
48.95071181902284

>  <distance_score>  (981) 
16.590255247726713

>  <path>  (981) 
/opt/xchem-fragalysis-2/maxwin/BulkDock/SCRATCH/511024/C28368-P123/C28368-P123.minimised.mol

>  <scratch_subdir>  (981) 
/opt/xchem-fragalysis-2/maxwin/BulkDock/SCRATCH/511024/C28368-P123

>  <fragmenstein_runtime>  (981) 
51.775108098983765

>  <fragmenstein_outcome>  (981) 
too moved

>  <fragmenstein_mode>  (981) 
expansion

>  <fragmenstein_error>  (981) 


$$$$
C28368-P81
     RDKit          3D

 50 52  0  0  0  0  0  0  0  0999 V2000
   -6.4706   -8.4524   19.1688 C   0  0  0  0  0  0  0  0  0  0  0  0
   -5.7776   -9.0374   20.4083 C   0  0  0  0  0  0  0  0  0  0  0  0
   -4.1518   -9.2305   20.2304 C   0  0  0  0  0  0  0  0  0  0  0  0
   -3.3333   -8.0606   19.7001 N   0  0  0  0  0  0  0  0  0  0  0  0
   -1.8574   -8.3947   19.5259 C   0  0  0  0  0  0  0  0  0  0  0  0
   -0.9310   -7.2529   19.0664 C   0  0  0  0  0  0  0  0  0  0  0  0
   -0.0312   -7.2729   17.9542 C   0  0  0  0  0  0  0  0  0  0  0  0
    0.7084   -6.1162   18.0364 C   0  0  0  0  0  0  0  0  0  0  0  0
    0.2413   -5.4639   19.1395 N   0  0  0  0  0  0  0  0  0  0  0  0
    0.7263   -4.2219   19.7173 C   0  0  0  0  0  0  0  0  0  0  0  0
    1.9806   -4.4571   20.5735 C   0  0  0  0  0  0  0  0  0  0  0  0
    2.9603   -3.3691   20.1634 C   0  0  0  0  0  0  0  0  0  0  0  0
    2.6231   -3.0999   18.7070 C   0  0  0  0  0  0  0  0  0  0  0  0
    1.1024   -3.1399   18.6919 C   0  0  0  0  0  0  0  0  0  0  0  0
   -0.7411   -6.1338   19.7896 N   0  0  0  0  0  0  0  0  0  0  0  0
   -6.6208  -10.0411   21.3501 N   0  0  0  0  0  0  0  0  0  0  0  0
   -6.6856  -10.8264   20.0988 C   0  0  0  0  0  0  0  0  0  0  0  0
   -7.9503   -9.9096   21.9245 C   0  0  0  0  0  0  0  0  0  0  0  0
   -8.7877   -9.0598   21.7657 O   0  0  0  0  0  0  0  0  0  0  0  0
   -8.3049  -10.9528   22.9673 C   0  0  0  0  0  0  0  0  0  0  0  0
   -9.6000  -11.2108   23.5328 C   0  0  0  0  0  0  0  0  0  0  0  0
   -9.6076  -12.1219   24.5195 N   0  0  0  0  0  0  0  0  0  0  0  0
   -8.3048  -12.3838   24.6842 N   0  0  0  0  0  0  0  0  0  0  0  0
   -7.5228  -11.8188   23.7155 C   0  0  0  0  0  0  0  0  0  0  0  0
   -7.5397   -8.2833   19.3352 H   0  0  0  0  0  0  0  0  0  0  0  0
   -6.3312   -9.0704   18.2748 H   0  0  0  0  0  0  0  0  0  0  0  0
   -6.0333   -7.4763   18.9269 H   0  0  0  0  0  0  0  0  0  0  0  0
   -5.7988   -8.1734   21.0939 H   0  0  0  0  0  0  0  0  0  0  0  0
   -3.7490   -9.5063   21.2114 H   0  0  0  0  0  0  0  0  0  0  0  0
   -3.9785  -10.0737   19.5541 H   0  0  0  0  0  0  0  0  0  0  0  0
   -3.3667   -7.2859   20.3653 H   0  0  0  0  0  0  0  0  0  0  0  0
   -1.8146   -9.1914   18.7763 H   0  0  0  0  0  0  0  0  0  0  0  0
   -1.4749   -8.7781   20.4793 H   0  0  0  0  0  0  0  0  0  0  0  0
    0.0799   -8.0661   17.2295 H   0  0  0  0  0  0  0  0  0  0  0  0
    1.5144   -5.7343   17.4282 H   0  0  0  0  0  0  0  0  0  0  0  0
   -0.0891   -3.8348   20.3426 H   0  0  0  0  0  0  0  0  0  0  0  0
    2.4240   -5.4428   20.3861 H   0  0  0  0  0  0  0  0  0  0  0  0
    1.7542   -4.4035   21.6437 H   0  0  0  0  0  0  0  0  0  0  0  0
    3.9985   -3.6832   20.3020 H   0  0  0  0  0  0  0  0  0  0  0  0
    2.7903   -2.4676   20.7640 H   0  0  0  0  0  0  0  0  0  0  0  0
    3.0132   -2.1404   18.3579 H   0  0  0  0  0  0  0  0  0  0  0  0
    3.0342   -3.8888   18.0677 H   0  0  0  0  0  0  0  0  0  0  0  0
    0.7020   -3.3095   17.6877 H   0  0  0  0  0  0  0  0  0  0  0  0
    0.7188   -2.1708   19.0360 H   0  0  0  0  0  0  0  0  0  0  0  0
   -5.7371  -11.1510   19.6615 H   0  0  0  0  0  0  0  0  0  0  0  0
   -7.4406  -10.4867   19.3787 H   0  0  0  0  0  0  0  0  0  0  0  0
   -7.1703  -11.7608   20.3974 H   0  0  0  0  0  0  0  0  0  0  0  0
  -10.5332  -10.7381   23.2499 H   0  0  0  0  0  0  0  0  0  0  0  0
   -8.0201  -12.9929   25.4437 H   0  0  0  0  0  0  0  0  0  0  0  0
   -6.4651  -12.0136   23.7025 H   0  0  0  0  0  0  0  0  0  0  0  0
  1  2  1  0
  2  3  1  0
  3  4  1  0
  4  5  1  0
  5  6  1  0
  6  7  1  0
  7  8  2  0
  8  9  1  0
  9 10  1  0
 10 11  1  0
 11 12  1  0
 12 13  1  0
 13 14  1  0
  9 15  1  0
  2 16  1  0
 16 17  1  0
 16 18  1  0
 18 19  2  0
 18 20  1  0
 20 21  1  0
 21 22  2  0
 22 23  1  0
 23 24  1  0
 15  6  2  0
 24 20  2  0
 14 10  1  0
  1 25  1  0
  1 26  1  0
  1 27  1  0
  2 28  1  0
  3 29  1  0
  3 30  1  0
  4 31  1  0
  5 32  1  0
  5 33  1  0
  7 34  1  0
  8 35  1  0
 10 36  1  0
 11 37  1  0
 11 38  1  0
 12 39  1  0
 12 40  1  0
 13 41  1  0
 13 42  1  0
 14 43  1  0
 14 44  1  0
 17 45  1  0
 17 46  1  0
 17 47  1  0
 21 48  1  0
 23 49  1  0
 24 50  1  0
M  END
>  <Energy>  (982) 
143.87121687389796

>  <compound_id>  (982) 
28368

>  <target_id>  (982) 
1

>  <reference_id>  (982) 
81

>  <inspiration_ids>  (982) 
[123, 81]

>  <energy_score>  (982) 
43.59654057244569

>  <distance_score>  (982) 
15.795566861873464

>  <path>  (982) 
/opt/xchem-fragalysis-2/maxwin/BulkDock/SCRATCH/511024/C28368-P81/C28368-P81.minimised.mol

>  <scratch_subdir>  (982) 
/opt/xchem-fragalysis-2/maxwin/BulkDock/SCRATCH/511024/C28368-P81

>  <fragmenstein_runtime>  (982) 
54.38190412521362

>  <fragmenstein_outcome>  (982) 
too moved

>  <fragmenstein_mode>  (982) 
expansion

>  <fragmenstein_error>  (982) 


$$$$
C18700-P123
     RDKit          3D

 50 52  0  0  0  0  0  0  0  0999 V2000
   -1.0093  -15.0190   22.4502 C   0  0  0  0  0  0  0  0  0  0  0  0
   -1.3229  -15.5009   24.3739 C   0  0  0  0  0  0  0  0  0  0  0  0
    0.4713  -14.3355   24.2256 C   0  0  0  0  0  0  0  0  0  0  0  0
    1.8371  -12.9378   23.8811 N   0  0  0  0  0  0  0  0  0  0  0  0
    3.2048  -12.2758   22.9592 C   0  0  0  0  0  0  0  0  0  0  0  0
    4.0887  -10.6056   22.4145 C   0  0  0  0  0  0  0  0  0  0  0  0
    3.6672   -9.2761   21.8707 C   0  0  0  0  0  0  0  0  0  0  0  0
    4.7775   -8.5141   21.5913 C   0  0  0  0  0  0  0  0  0  0  0  0
    5.8171   -9.2682   21.9936 N   0  0  0  0  0  0  0  0  0  0  0  0
    7.2277   -8.9368   21.9543 C   0  0  0  0  0  0  0  0  0  0  0  0
    7.9793   -9.2797   23.2530 C   0  0  0  0  0  0  0  0  0  0  0  0
    9.1275   -8.2751   23.3647 C   0  0  0  0  0  0  0  0  0  0  0  0
    9.0290   -7.3872   22.1326 C   0  0  0  0  0  0  0  0  0  0  0  0
    7.5627   -7.4573   21.7437 C   0  0  0  0  0  0  0  0  0  0  0  0
    5.4583  -10.4805   22.4489 N   0  0  0  0  0  0  0  0  0  0  0  0
   -1.7468  -17.3961   25.3565 N   0  0  0  0  0  0  0  0  0  0  0  0
   -2.6916  -16.6466   25.9734 C   0  0  0  0  0  0  0  0  0  0  0  0
   -0.8054  -18.3622   26.6146 C   0  0  0  0  0  0  0  0  0  0  0  0
    0.1833  -17.8717   27.0799 O   0  0  0  0  0  0  0  0  0  0  0  0
   -1.1516  -20.0650   27.4789 C   0  0  0  0  0  0  0  0  0  0  0  0
   -0.5756  -20.2530   29.1668 C   0  0  0  0  0  0  0  0  0  0  0  0
   -1.3524  -21.2339   29.6247 C   0  0  0  0  0  0  0  0  0  0  0  0
   -1.0858  -21.9761   28.6124 N   0  0  0  0  0  0  0  0  0  0  0  0
   -0.4505  -21.2816   27.7616 N   0  0  0  0  0  0  0  0  0  0  0  0
   -0.2108  -14.3380   22.2592 H   0  0  0  0  0  0  0  0  0  0  0  0
   -1.8024  -14.7729   21.6858 H   0  0  0  0  0  0  0  0  0  0  0  0
   -0.4639  -15.8709   21.8661 H   0  0  0  0  0  0  0  0  0  0  0  0
   -1.9336  -14.7882   24.9413 H   0  0  0  0  0  0  0  0  0  0  0  0
    0.7684  -13.8916   25.2473 H   0  0  0  0  0  0  0  0  0  0  0  0
   -0.2142  -13.8192   23.6358 H   0  0  0  0  0  0  0  0  0  0  0  0
    1.6815  -12.2963   24.6632 H   0  0  0  0  0  0  0  0  0  0  0  0
    3.3763  -12.8666   22.0599 H   0  0  0  0  0  0  0  0  0  0  0  0
    3.7924  -12.6414   23.7656 H   0  0  0  0  0  0  0  0  0  0  0  0
    2.6618   -8.9530   21.6270 H   0  0  0  0  0  0  0  0  0  0  0  0
    4.8728   -7.5313   21.1544 H   0  0  0  0  0  0  0  0  0  0  0  0
    7.6507   -9.5221   21.1261 H   0  0  0  0  0  0  0  0  0  0  0  0
    7.3311   -9.1932   24.1339 H   0  0  0  0  0  0  0  0  0  0  0  0
    8.3537  -10.3092   23.2284 H   0  0  0  0  0  0  0  0  0  0  0  0
    9.0076   -7.6768   24.2754 H   0  0  0  0  0  0  0  0  0  0  0  0
   10.1012   -8.7718   23.4237 H   0  0  0  0  0  0  0  0  0  0  0  0
    9.3637   -6.3642   22.3268 H   0  0  0  0  0  0  0  0  0  0  0  0
    9.6485   -7.8024   21.3303 H   0  0  0  0  0  0  0  0  0  0  0  0
    7.3950   -7.1327   20.7125 H   0  0  0  0  0  0  0  0  0  0  0  0
    6.9681   -6.8137   22.4043 H   0  0  0  0  0  0  0  0  0  0  0  0
   -2.2357  -16.0041   26.8129 H   0  0  0  0  0  0  0  0  0  0  0  0
   -3.2414  -16.1062   25.2185 H   0  0  0  0  0  0  0  0  0  0  0  0
   -3.0521  -17.2330   26.8172 H   0  0  0  0  0  0  0  0  0  0  0  0
   -0.0849  -19.4365   29.7173 H   0  0  0  0  0  0  0  0  0  0  0  0
   -2.0061  -21.5226   30.3757 H   0  0  0  0  0  0  0  0  0  0  0  0
   -1.4210  -22.9232   28.4299 H   0  0  0  0  0  0  0  0  0  0  0  0
  1  2  1  0
  2  3  1  0
  3  4  1  0
  4  5  1  0
  5  6  1  0
  6  7  1  0
  7  8  2  0
  8  9  1  0
  9 10  1  0
 10 11  1  0
 11 12  1  0
 12 13  1  0
 13 14  1  0
  9 15  1  0
  2 16  1  0
 16 17  1  0
 16 18  1  0
 18 19  2  0
 18 20  1  0
 20 21  1  0
 21 22  2  0
 22 23  1  0
 23 24  1  0
 15  6  2  0
 24 20  2  0
 14 10  1  0
  1 25  1  0
  1 26  1  0
  1 27  1  0
  2 28  1  0
  3 29  1  0
  3 30  1  0
  4 31  1  0
  5 32  1  0
  5 33  1  0
  7 34  1  0
  8 35  1  0
 10 36  1  0
 11 37  1  0
 11 38  1  0
 12 39  1  0
 12 40  1  0
 13 41  1  0
 13 42  1  0
 14 43  1  0
 14 44  1  0
 17 45  1  0
 17 46  1  0
 17 47  1  0
 21 48  1  0
 22 49  1  0
 23 50  1  0
M  END
>  <Energy>  (983) 
1147.5373472392973

>  <compound_id>  (983) 
18700

>  <target_id>  (983) 
1

>  <reference_id>  (983) 
123

>  <inspiration_ids>  (983) 
[123, 81]

>  <energy_score>  (983) 
1023.3146881016854

>  <distance_score>  (983) 
12.790046749484969

>  <path>  (983) 
/opt/xchem-fragalysis-2/maxwin/BulkDock/SCRATCH/511024/C18700-P123/C18700-P123.minimised.mol

>  <scratch_subdir>  (983) 
/opt/xchem-fragalysis-2/maxwin/BulkDock/SCRATCH/511024/C18700-P123

>  <fragmenstein_runtime>  (983) 
46.45614671707153

>  <fragmenstein_outcome>  (983) 
too moved

>  <fragmenstein_mode>  (983) 
expansion

>  <fragmenstein_error>  (983) 


$$$$
C18700-P81
     RDKit          3D

 50 52  0  0  0  0  0  0  0  0999 V2000
   -2.2422  -18.9743   26.2997 C   0  0  0  0  0  0  0  0  0  0  0  0
   -3.7693  -18.3826   27.2143 C   0  0  0  0  0  0  0  0  0  0  0  0
   -2.6267  -16.7473   26.2686 C   0  0  0  0  0  0  0  0  0  0  0  0
   -1.9846  -15.1022   25.0736 N   0  0  0  0  0  0  0  0  0  0  0  0
   -0.2089  -14.3015   24.2295 C   0  0  0  0  0  0  0  0  0  0  0  0
    1.6094  -13.2092   24.1021 C   0  0  0  0  0  0  0  0  0  0  0  0
    1.6560  -11.9710   23.5130 C   0  0  0  0  0  0  0  0  0  0  0  0
    2.8554  -11.5349   23.2795 C   0  0  0  0  0  0  0  0  0  0  0  0
    3.5041  -12.2345   22.4171 N   0  0  0  0  0  0  0  0  0  0  0  0
    4.6522  -10.8621   21.8074 C   0  0  0  0  0  0  0  0  0  0  0  0
    5.7981  -10.2057   22.7497 C   0  0  0  0  0  0  0  0  0  0  0  0
    7.0625  -10.1095   21.8894 C   0  0  0  0  0  0  0  0  0  0  0  0
    6.6009  -10.1831   20.4504 C   0  0  0  0  0  0  0  0  0  0  0  0
    5.4908  -11.2271   20.4592 C   0  0  0  0  0  0  0  0  0  0  0  0
    3.0471  -13.4822   23.5239 N   0  0  0  0  0  0  0  0  0  0  0  0
   -5.3440  -19.9361   26.8730 N   0  0  0  0  0  0  0  0  0  0  0  0
   -5.0431  -19.6738   25.2754 C   0  0  0  0  0  0  0  0  0  0  0  0
   -7.1842  -19.9268   27.1557 C   0  0  0  0  0  0  0  0  0  0  0  0
   -7.8373  -18.8319   27.5037 O   0  0  0  0  0  0  0  0  0  0  0  0
   -8.1347  -21.5960   27.0940 C   0  0  0  0  0  0  0  0  0  0  0  0
   -7.6449  -22.9524   26.7441 C   0  0  0  0  0  0  0  0  0  0  0  0
   -8.7486  -23.7634   26.5850 C   0  0  0  0  0  0  0  0  0  0  0  0
   -9.8147  -22.9811   26.8804 N   0  0  0  0  0  0  0  0  0  0  0  0
   -9.4830  -21.7270   27.1802 N   0  0  0  0  0  0  0  0  0  0  0  0
   -1.2439  -18.5574   26.5355 H   0  0  0  0  0  0  0  0  0  0  0  0
   -2.3156  -18.8144   25.2810 H   0  0  0  0  0  0  0  0  0  0  0  0
   -2.0026  -19.9617   26.5871 H   0  0  0  0  0  0  0  0  0  0  0  0
   -4.3390  -17.4499   27.3157 H   0  0  0  0  0  0  0  0  0  0  0  0
   -2.5844  -16.0867   27.1860 H   0  0  0  0  0  0  0  0  0  0  0  0
   -1.7314  -17.0567   26.8390 H   0  0  0  0  0  0  0  0  0  0  0  0
   -2.3880  -15.4497   24.2015 H   0  0  0  0  0  0  0  0  0  0  0  0
   -0.5213  -13.9797   23.2498 H   0  0  0  0  0  0  0  0  0  0  0  0
    0.4124  -13.8184   25.1192 H   0  0  0  0  0  0  0  0  0  0  0  0
    0.8198  -11.5733   22.9224 H   0  0  0  0  0  0  0  0  0  0  0  0
    3.2304  -10.5594   23.0545 H   0  0  0  0  0  0  0  0  0  0  0  0
    3.9993   -9.9904   21.6139 H   0  0  0  0  0  0  0  0  0  0  0  0
    5.4849   -9.1954   23.0327 H   0  0  0  0  0  0  0  0  0  0  0  0
    6.0630  -10.7501   23.6580 H   0  0  0  0  0  0  0  0  0  0  0  0
    7.6273   -9.1954   22.0963 H   0  0  0  0  0  0  0  0  0  0  0  0
    7.7192  -10.9603   22.1090 H   0  0  0  0  0  0  0  0  0  0  0  0
    7.4141  -10.4558   19.7713 H   0  0  0  0  0  0  0  0  0  0  0  0
    6.2018   -9.2131   20.1312 H   0  0  0  0  0  0  0  0  0  0  0  0
    5.9154  -12.2358   20.4741 H   0  0  0  0  0  0  0  0  0  0  0  0
    4.9451  -11.1407   19.5135 H   0  0  0  0  0  0  0  0  0  0  0  0
   -5.7294  -19.2710   24.5516 H   0  0  0  0  0  0  0  0  0  0  0  0
   -4.0548  -19.7871   24.8197 H   0  0  0  0  0  0  0  0  0  0  0  0
   -4.9706  -20.7292   25.0990 H   0  0  0  0  0  0  0  0  0  0  0  0
   -6.6130  -23.2411   26.5862 H   0  0  0  0  0  0  0  0  0  0  0  0
   -8.8599  -24.8012   26.3076 H   0  0  0  0  0  0  0  0  0  0  0  0
  -10.8056  -23.2174   26.8691 H   0  0  0  0  0  0  0  0  0  0  0  0
  1  2  1  0
  2  3  1  0
  3  4  1  0
  4  5  1  0
  5  6  1  0
  6  7  1  0
  7  8  2  0
  8  9  1  0
  9 10  1  0
 10 11  1  0
 11 12  1  0
 12 13  1  0
 13 14  1  0
  9 15  1  0
  2 16  1  0
 16 17  1  0
 16 18  1  0
 18 19  2  0
 18 20  1  0
 20 21  1  0
 21 22  2  0
 22 23  1  0
 23 24  1  0
 15  6  2  0
 24 20  2  0
 14 10  1  0
  1 25  1  0
  1 26  1  0
  1 27  1  0
  2 28  1  0
  3 29  1  0
  3 30  1  0
  4 31  1  0
  5 32  1  0
  5 33  1  0
  7 34  1  0
  8 35  1  0
 10 36  1  0
 11 37  1  0
 11 38  1  0
 12 39  1  0
 12 40  1  0
 13 41  1  0
 13 42  1  0
 14 43  1  0
 14 44  1  0
 17 45  1  0
 17 46  1  0
 17 47  1  0
 21 48  1  0
 22 49  1  0
 23 50  1  0
M  END
>  <Energy>  (984) 
1623.2927964102962

>  <compound_id>  (984) 
18700

>  <target_id>  (984) 
1

>  <reference_id>  (984) 
81

>  <inspiration_ids>  (984) 
[123, 81]

>  <energy_score>  (984) 
1499.0701372727208

>  <distance_score>  (984) 
13.115330376297074

>  <path>  (984) 
/opt/xchem-fragalysis-2/maxwin/BulkDock/SCRATCH/511024/C18700-P81/C18700-P81.minimised.mol

>  <scratch_subdir>  (984) 
/opt/xchem-fragalysis-2/maxwin/BulkDock/SCRATCH/511024/C18700-P81

>  <fragmenstein_runtime>  (984) 
42.23829436302185

>  <fragmenstein_outcome>  (984) 
too moved

>  <fragmenstein_mode>  (984) 
expansion

>  <fragmenstein_error>  (984) 


$$$$
C28369-P123
     RDKit          3D

 47 49  0  0  0  0  0  0  0  0999 V2000
   -6.8019  -17.0148   19.8411 O   0  0  0  0  0  0  0  0  0  0  0  0
   -6.0479  -16.8946   20.7586 C   0  0  0  0  0  0  0  0  0  0  0  0
   -4.6610  -16.5562   20.7866 N   0  0  0  0  0  0  0  0  0  0  0  0
   -3.7522  -16.1578   19.7218 C   0  0  0  0  0  0  0  0  0  0  0  0
   -2.3778  -16.8091   19.8733 C   0  0  0  0  0  0  0  0  0  0  0  0
   -2.4778  -18.0587   18.8982 C   0  0  0  0  0  0  0  0  0  0  0  0
   -1.3529  -18.9328   19.0062 O   0  0  0  0  0  0  0  0  0  0  0  0
   -1.1901  -16.0785   19.4149 N   0  0  0  0  0  0  0  0  0  0  0  0
    0.5876  -16.2096   19.8828 C   0  0  0  0  0  0  0  0  0  0  0  0
    0.8113  -16.9189   20.7413 O   0  0  0  0  0  0  0  0  0  0  0  0
    1.9286  -15.1966   18.6917 C   0  0  0  0  0  0  0  0  0  0  0  0
    1.5387  -14.2700   17.6604 C   0  0  0  0  0  0  0  0  0  0  0  0
    1.8325  -14.9356   16.3214 C   0  0  0  0  0  0  0  0  0  0  0  0
    2.9171  -15.6354   16.5071 N   0  0  0  0  0  0  0  0  0  0  0  0
    3.3100  -15.3075   17.9031 N   0  0  0  0  0  0  0  0  0  0  0  0
    4.7725  -14.6886   17.9961 C   0  0  0  0  0  0  0  0  0  0  0  0
    5.9861  -15.6115   18.3314 C   0  0  0  0  0  0  0  0  0  0  0  0
    7.2087  -14.7111   18.2465 C   0  0  0  0  0  0  0  0  0  0  0  0
    7.0160  -14.0793   16.8953 C   0  0  0  0  0  0  0  0  0  0  0  0
    5.4947  -14.0420   16.7096 C   0  0  0  0  0  0  0  0  0  0  0  0
   -6.6245  -17.0130   22.1235 C   0  0  0  0  0  0  0  0  0  0  0  0
   -8.0063  -17.1795   22.4301 C   0  0  0  0  0  0  0  0  0  0  0  0
   -8.2743  -17.0889   23.7343 N   0  0  0  0  0  0  0  0  0  0  0  0
   -7.0639  -16.9342   24.2905 N   0  0  0  0  0  0  0  0  0  0  0  0
   -6.0444  -16.9315   23.3811 C   0  0  0  0  0  0  0  0  0  0  0  0
   -4.3247  -16.6267   21.7332 H   0  0  0  0  0  0  0  0  0  0  0  0
   -3.6495  -15.0726   19.7272 H   0  0  0  0  0  0  0  0  0  0  0  0
   -4.2386  -16.3895   18.7666 H   0  0  0  0  0  0  0  0  0  0  0  0
   -2.1490  -17.4071   20.7356 H   0  0  0  0  0  0  0  0  0  0  0  0
   -3.3635  -18.6588   19.1369 H   0  0  0  0  0  0  0  0  0  0  0  0
   -2.5568  -17.7432   17.8526 H   0  0  0  0  0  0  0  0  0  0  0  0
   -0.6450  -18.4559   19.4800 H   0  0  0  0  0  0  0  0  0  0  0  0
   -1.2807  -15.3596   18.7037 H   0  0  0  0  0  0  0  0  0  0  0  0
    0.6352  -13.6618   17.7059 H   0  0  0  0  0  0  0  0  0  0  0  0
    1.3742  -14.7993   15.3465 H   0  0  0  0  0  0  0  0  0  0  0  0
    4.6599  -13.8357   18.6774 H   0  0  0  0  0  0  0  0  0  0  0  0
    6.1413  -16.3426   17.5339 H   0  0  0  0  0  0  0  0  0  0  0  0
    5.9576  -16.1671   19.2590 H   0  0  0  0  0  0  0  0  0  0  0  0
    8.1470  -15.2689   18.3126 H   0  0  0  0  0  0  0  0  0  0  0  0
    7.2048  -13.9373   19.0195 H   0  0  0  0  0  0  0  0  0  0  0  0
    7.4728  -14.6903   16.1079 H   0  0  0  0  0  0  0  0  0  0  0  0
    7.4678  -13.0835   16.8428 H   0  0  0  0  0  0  0  0  0  0  0  0
    5.2612  -12.9766   16.6083 H   0  0  0  0  0  0  0  0  0  0  0  0
    5.2415  -14.5734   15.7848 H   0  0  0  0  0  0  0  0  0  0  0  0
   -8.8225  -17.3071   21.7280 H   0  0  0  0  0  0  0  0  0  0  0  0
   -7.0070  -16.8324   25.2994 H   0  0  0  0  0  0  0  0  0  0  0  0
   -5.0282  -16.8093   23.7197 H   0  0  0  0  0  0  0  0  0  0  0  0
  1  2  2  0
  2  3  1  0
  3  4  1  0
  4  5  1  0
  5  6  1  0
  6  7  1  0
  5  8  1  0
  8  9  1  0
  9 10  2  0
  9 11  1  0
 11 12  2  0
 12 13  1  0
 13 14  2  0
 14 15  1  0
 15 16  1  0
 16 17  1  0
 17 18  1  0
 18 19  1  0
 19 20  1  0
  2 21  1  0
 21 22  1  0
 22 23  2  0
 23 24  1  0
 24 25  1  0
 15 11  1  0
 20 16  1  0
 25 21  2  0
  3 26  1  0
  4 27  1  0
  4 28  1  0
  5 29  1  0
  6 30  1  0
  6 31  1  0
  7 32  1  0
  8 33  1  0
 12 34  1  0
 13 35  1  0
 16 36  1  0
 17 37  1  0
 17 38  1  0
 18 39  1  0
 18 40  1  0
 19 41  1  0
 19 42  1  0
 20 43  1  0
 20 44  1  0
 22 45  1  0
 24 46  1  0
 25 47  1  0
M  END
>  <Energy>  (985) 
306.89116195699859

>  <compound_id>  (985) 
28369

>  <target_id>  (985) 
1

>  <reference_id>  (985) 
123

>  <inspiration_ids>  (985) 
[123, 81]

>  <energy_score>  (985) 
261.93105001093875

>  <distance_score>  (985) 
14.871838236557467

>  <path>  (985) 
/opt/xchem-fragalysis-2/maxwin/BulkDock/SCRATCH/511024/C28369-P123/C28369-P123.minimised.mol

>  <scratch_subdir>  (985) 
/opt/xchem-fragalysis-2/maxwin/BulkDock/SCRATCH/511024/C28369-P123

>  <fragmenstein_runtime>  (985) 
45.85767698287964

>  <fragmenstein_outcome>  (985) 
too moved

>  <fragmenstein_mode>  (985) 
expansion

>  <fragmenstein_error>  (985) 


$$$$
C28369-P81
     RDKit          3D

 47 49  0  0  0  0  0  0  0  0999 V2000
   -2.0275  -12.1291   26.6415 O   0  0  0  0  0  0  0  0  0  0  0  0
   -1.4045  -12.9839   27.2001 C   0  0  0  0  0  0  0  0  0  0  0  0
   -0.0060  -13.3371   27.1161 N   0  0  0  0  0  0  0  0  0  0  0  0
    1.1046  -12.8124   26.2246 C   0  0  0  0  0  0  0  0  0  0  0  0
    1.7908  -12.9451   24.3683 C   0  0  0  0  0  0  0  0  0  0  0  0
    0.4651  -14.1019   23.7393 C   0  0  0  0  0  0  0  0  0  0  0  0
   -0.9030  -14.4245   24.2101 O   0  0  0  0  0  0  0  0  0  0  0  0
    3.2561  -12.6074   24.1106 N   0  0  0  0  0  0  0  0  0  0  0  0
    3.9959  -11.4488   23.0635 C   0  0  0  0  0  0  0  0  0  0  0  0
    3.3558  -10.8741   22.3618 O   0  0  0  0  0  0  0  0  0  0  0  0
    5.7559  -10.7881   22.9873 C   0  0  0  0  0  0  0  0  0  0  0  0
    6.7203  -10.5871   24.0147 C   0  0  0  0  0  0  0  0  0  0  0  0
    7.7909   -9.8695   23.4846 C   0  0  0  0  0  0  0  0  0  0  0  0
    7.6515   -9.6784   22.1893 N   0  0  0  0  0  0  0  0  0  0  0  0
    6.5725  -10.4142   21.8334 N   0  0  0  0  0  0  0  0  0  0  0  0
    6.6919  -11.0173   20.4904 C   0  0  0  0  0  0  0  0  0  0  0  0
    6.9168   -9.9891   19.3502 C   0  0  0  0  0  0  0  0  0  0  0  0
    8.2165  -10.3847   18.6765 C   0  0  0  0  0  0  0  0  0  0  0  0
    8.3404  -11.8623   18.9074 C   0  0  0  0  0  0  0  0  0  0  0  0
    7.9307  -11.9412   20.3589 C   0  0  0  0  0  0  0  0  0  0  0  0
   -2.1861  -13.9373   28.0708 C   0  0  0  0  0  0  0  0  0  0  0  0
   -1.8181  -14.8701   29.0845 C   0  0  0  0  0  0  0  0  0  0  0  0
   -2.8365  -15.5999   29.5595 N   0  0  0  0  0  0  0  0  0  0  0  0
   -3.8895  -15.1520   28.8637 N   0  0  0  0  0  0  0  0  0  0  0  0
   -3.5587  -14.1620   27.9806 C   0  0  0  0  0  0  0  0  0  0  0  0
    0.1925  -14.0602   27.7923 H   0  0  0  0  0  0  0  0  0  0  0  0
    1.8381  -13.4392   26.7423 H   0  0  0  0  0  0  0  0  0  0  0  0
    1.0431  -11.7587   26.4902 H   0  0  0  0  0  0  0  0  0  0  0  0
    1.5833  -12.0050   23.8590 H   0  0  0  0  0  0  0  0  0  0  0  0
    0.5721  -14.1809   24.7388 H   0  0  0  0  0  0  0  0  0  0  0  0
   -0.1340  -13.6555   22.9487 H   0  0  0  0  0  0  0  0  0  0  0  0
   -1.1216  -13.6435   24.7715 H   0  0  0  0  0  0  0  0  0  0  0  0
    3.9574  -12.9722   24.7348 H   0  0  0  0  0  0  0  0  0  0  0  0
    6.6419  -10.8519   25.0605 H   0  0  0  0  0  0  0  0  0  0  0  0
    8.6638   -9.4820   23.9941 H   0  0  0  0  0  0  0  0  0  0  0  0
    5.7995  -11.6136   20.3073 H   0  0  0  0  0  0  0  0  0  0  0  0
    6.1270  -10.0496   18.6001 H   0  0  0  0  0  0  0  0  0  0  0  0
    6.9650   -8.9484   19.6856 H   0  0  0  0  0  0  0  0  0  0  0  0
    9.0275   -9.8820   19.2083 H   0  0  0  0  0  0  0  0  0  0  0  0
    8.2387  -10.1326   17.6150 H   0  0  0  0  0  0  0  0  0  0  0  0
    9.3549  -12.2331   18.7371 H   0  0  0  0  0  0  0  0  0  0  0  0
    7.6472  -12.4239   18.2709 H   0  0  0  0  0  0  0  0  0  0  0  0
    7.7256  -12.9692   20.5949 H   0  0  0  0  0  0  0  0  0  0  0  0
    8.7624  -11.6260   21.0000 H   0  0  0  0  0  0  0  0  0  0  0  0
   -0.8350  -15.0565   29.4965 H   0  0  0  0  0  0  0  0  0  0  0  0
   -4.8013  -15.5611   29.0439 H   0  0  0  0  0  0  0  0  0  0  0  0
   -4.3064  -13.7118   27.3425 H   0  0  0  0  0  0  0  0  0  0  0  0
  1  2  2  0
  2  3  1  0
  3  4  1  0
  4  5  1  0
  5  6  1  0
  6  7  1  0
  5  8  1  0
  8  9  1  0
  9 10  2  0
  9 11  1  0
 11 12  2  0
 12 13  1  0
 13 14  2  0
 14 15  1  0
 15 16  1  0
 16 17  1  0
 17 18  1  0
 18 19  1  0
 19 20  1  0
  2 21  1  0
 21 22  1  0
 22 23  2  0
 23 24  1  0
 24 25  1  0
 15 11  1  0
 20 16  1  0
 25 21  2  0
  3 26  1  0
  4 27  1  0
  4 28  1  0
  5 29  1  0
  6 30  1  0
  6 31  1  0
  7 32  1  0
  8 33  1  0
 12 34  1  0
 13 35  1  0
 16 36  1  0
 17 37  1  0
 17 38  1  0
 18 39  1  0
 18 40  1  0
 19 41  1  0
 19 42  1  0
 20 43  1  0
 20 44  1  0
 22 45  1  0
 24 46  1  0
 25 47  1  0
M  END
>  <Energy>  (986) 
366.01258158060347

>  <compound_id>  (986) 
28369

>  <target_id>  (986) 
1

>  <reference_id>  (986) 
81

>  <inspiration_ids>  (986) 
[123, 81]

>  <energy_score>  (986) 
321.05246963454033

>  <distance_score>  (986) 
14.459576893052917

>  <path>  (986) 
/opt/xchem-fragalysis-2/maxwin/BulkDock/SCRATCH/511024/C28369-P81/C28369-P81.minimised.mol

>  <scratch_subdir>  (986) 
/opt/xchem-fragalysis-2/maxwin/BulkDock/SCRATCH/511024/C28369-P81

>  <fragmenstein_runtime>  (986) 
34.79224491119385

>  <fragmenstein_outcome>  (986) 
too moved

>  <fragmenstein_mode>  (986) 
expansion

>  <fragmenstein_error>  (986) 


$$$$
C18701-P123
     RDKit          3D

 47 49  0  0  0  0  0  0  0  0999 V2000
   -0.6996  -20.8659   28.2070 O   0  0  0  0  0  0  0  0  0  0  0  0
   -0.8158  -20.8921   29.3852 C   0  0  0  0  0  0  0  0  0  0  0  0
   -0.1179  -19.4744   30.4274 N   0  0  0  0  0  0  0  0  0  0  0  0
    0.8238  -17.9393   29.9661 C   0  0  0  0  0  0  0  0  0  0  0  0
    1.6386  -16.8546   28.4819 C   0  0  0  0  0  0  0  0  0  0  0  0
    1.3982  -17.3936   27.2477 C   0  0  0  0  0  0  0  0  0  0  0  0
    2.6384  -17.5989   26.5595 O   0  0  0  0  0  0  0  0  0  0  0  0
    3.2345  -15.9098   28.1401 N   0  0  0  0  0  0  0  0  0  0  0  0
    3.5382  -14.4046   27.2985 C   0  0  0  0  0  0  0  0  0  0  0  0
    2.6750  -13.8513   26.7243 O   0  0  0  0  0  0  0  0  0  0  0  0
    5.1219  -13.3069   27.3189 C   0  0  0  0  0  0  0  0  0  0  0  0
    5.1695  -12.2106   28.3643 C   0  0  0  0  0  0  0  0  0  0  0  0
    6.2309  -11.3348   28.4173 C   0  0  0  0  0  0  0  0  0  0  0  0
    7.1074  -11.7971   27.5931 N   0  0  0  0  0  0  0  0  0  0  0  0
    6.3973  -12.5272   26.6627 N   0  0  0  0  0  0  0  0  0  0  0  0
    7.2363  -12.3547   25.4820 C   0  0  0  0  0  0  0  0  0  0  0  0
    7.7537  -10.9088   25.1531 C   0  0  0  0  0  0  0  0  0  0  0  0
    8.8571  -11.1414   24.1241 C   0  0  0  0  0  0  0  0  0  0  0  0
    9.4866  -12.4795   24.4921 C   0  0  0  0  0  0  0  0  0  0  0  0
    8.6173  -13.0596   25.6035 C   0  0  0  0  0  0  0  0  0  0  0  0
   -1.5854  -22.5275   29.8844 C   0  0  0  0  0  0  0  0  0  0  0  0
   -1.3927  -23.9351   29.1311 C   0  0  0  0  0  0  0  0  0  0  0  0
   -2.1703  -24.8971   29.7240 C   0  0  0  0  0  0  0  0  0  0  0  0
   -2.8887  -24.2276   30.6409 N   0  0  0  0  0  0  0  0  0  0  0  0
   -2.6628  -22.9169   30.7025 N   0  0  0  0  0  0  0  0  0  0  0  0
   -0.3772  -19.6074   31.3686 H   0  0  0  0  0  0  0  0  0  0  0  0
    0.5200  -18.5542   29.1666 H   0  0  0  0  0  0  0  0  0  0  0  0
    1.6302  -17.9951   30.6675 H   0  0  0  0  0  0  0  0  0  0  0  0
    0.9537  -16.1291   28.8122 H   0  0  0  0  0  0  0  0  0  0  0  0
    1.0887  -18.3377   27.1522 H   0  0  0  0  0  0  0  0  0  0  0  0
    0.3091  -17.4466   27.0480 H   0  0  0  0  0  0  0  0  0  0  0  0
    3.2468  -16.9897   27.0143 H   0  0  0  0  0  0  0  0  0  0  0  0
    4.0883  -16.1798   28.6431 H   0  0  0  0  0  0  0  0  0  0  0  0
    4.3294  -11.9553   28.9596 H   0  0  0  0  0  0  0  0  0  0  0  0
    6.4358  -10.4971   29.0696 H   0  0  0  0  0  0  0  0  0  0  0  0
    6.6662  -12.5196   24.6086 H   0  0  0  0  0  0  0  0  0  0  0  0
    8.1828  -10.3916   26.0188 H   0  0  0  0  0  0  0  0  0  0  0  0
    6.9774  -10.2623   24.7382 H   0  0  0  0  0  0  0  0  0  0  0  0
    9.5890  -10.3279   24.1232 H   0  0  0  0  0  0  0  0  0  0  0  0
    8.4262  -11.1980   23.1176 H   0  0  0  0  0  0  0  0  0  0  0  0
    9.5131  -13.1427   23.6219 H   0  0  0  0  0  0  0  0  0  0  0  0
   10.5194  -12.3539   24.8344 H   0  0  0  0  0  0  0  0  0  0  0  0
    8.5918  -14.1507   25.5887 H   0  0  0  0  0  0  0  0  0  0  0  0
    9.0979  -12.8117   26.5600 H   0  0  0  0  0  0  0  0  0  0  0  0
   -0.7776  -24.0988   28.2582 H   0  0  0  0  0  0  0  0  0  0  0  0
   -2.3150  -25.9471   29.5226 H   0  0  0  0  0  0  0  0  0  0  0  0
   -3.6248  -24.5975   31.2306 H   0  0  0  0  0  0  0  0  0  0  0  0
  1  2  2  0
  2  3  1  0
  3  4  1  0
  4  5  1  0
  5  6  1  0
  6  7  1  0
  5  8  1  0
  8  9  1  0
  9 10  2  0
  9 11  1  0
 11 12  2  0
 12 13  1  0
 13 14  2  0
 14 15  1  0
 15 16  1  0
 16 17  1  0
 17 18  1  0
 18 19  1  0
 19 20  1  0
  2 21  1  0
 21 22  1  0
 22 23  2  0
 23 24  1  0
 24 25  1  0
 15 11  1  0
 20 16  1  0
 25 21  2  0
  3 26  1  0
  4 27  1  0
  4 28  1  0
  5 29  1  0
  6 30  1  0
  6 31  1  0
  7 32  1  0
  8 33  1  0
 12 34  1  0
 13 35  1  0
 16 36  1  0
 17 37  1  0
 17 38  1  0
 18 39  1  0
 18 40  1  0
 19 41  1  0
 19 42  1  0
 20 43  1  0
 20 44  1  0
 22 45  1  0
 23 46  1  0
 24 47  1  0
M  END
>  <Energy>  (987) 
718.40957623391705

>  <compound_id>  (987) 
18701

>  <target_id>  (987) 
1

>  <reference_id>  (987) 
123

>  <inspiration_ids>  (987) 
[123, 81]

>  <energy_score>  (987) 
657.7102061869064

>  <distance_score>  (987) 
14.519390050721961

>  <path>  (987) 
/opt/xchem-fragalysis-2/maxwin/BulkDock/SCRATCH/511024/C18701-P123/C18701-P123.minimised.mol

>  <scratch_subdir>  (987) 
/opt/xchem-fragalysis-2/maxwin/BulkDock/SCRATCH/511024/C18701-P123

>  <fragmenstein_runtime>  (987) 
44.923415422439575

>  <fragmenstein_outcome>  (987) 
too moved

>  <fragmenstein_mode>  (987) 
expansion

>  <fragmenstein_error>  (987) 


$$$$
C18701-P81
     RDKit          3D

 47 49  0  0  0  0  0  0  0  0999 V2000
    1.0019  -21.1293   32.8361 O   0  0  0  0  0  0  0  0  0  0  0  0
   -0.1435  -20.4464   32.3180 C   0  0  0  0  0  0  0  0  0  0  0  0
   -0.2858  -18.9521   30.9545 N   0  0  0  0  0  0  0  0  0  0  0  0
    1.1437  -17.7364   29.9383 C   0  0  0  0  0  0  0  0  0  0  0  0
    1.7604  -16.3589   28.2559 C   0  0  0  0  0  0  0  0  0  0  0  0
    2.1196  -17.3310   27.1594 C   0  0  0  0  0  0  0  0  0  0  0  0
    2.8984  -17.4094   25.9954 O   0  0  0  0  0  0  0  0  0  0  0  0
    3.5342  -15.4249   27.5101 N   0  0  0  0  0  0  0  0  0  0  0  0
    4.2955  -13.5798   27.6368 C   0  0  0  0  0  0  0  0  0  0  0  0
    3.8078  -12.6307   28.3267 O   0  0  0  0  0  0  0  0  0  0  0  0
    5.8527  -12.9324   26.7719 C   0  0  0  0  0  0  0  0  0  0  0  0
    6.0608  -11.4935   27.1437 C   0  0  0  0  0  0  0  0  0  0  0  0
    7.2690  -11.2346   27.8025 C   0  0  0  0  0  0  0  0  0  0  0  0
    7.9207  -12.3708   27.9008 N   0  0  0  0  0  0  0  0  0  0  0  0
    7.4305  -13.0669   26.8146 N   0  0  0  0  0  0  0  0  0  0  0  0
    8.4897  -12.9601   25.7975 C   0  0  0  0  0  0  0  0  0  0  0  0
    9.2317  -14.2036   25.3208 C   0  0  0  0  0  0  0  0  0  0  0  0
    9.8501  -13.8017   23.9801 C   0  0  0  0  0  0  0  0  0  0  0  0
    9.5858  -12.3034   23.7965 C   0  0  0  0  0  0  0  0  0  0  0  0
    8.3627  -11.9697   24.6496 C   0  0  0  0  0  0  0  0  0  0  0  0
   -1.6378  -21.0007   33.2283 C   0  0  0  0  0  0  0  0  0  0  0  0
   -2.7118  -20.1829   33.9067 C   0  0  0  0  0  0  0  0  0  0  0  0
   -3.3226  -20.9944   34.8263 C   0  0  0  0  0  0  0  0  0  0  0  0
   -2.7073  -22.1954   34.7191 N   0  0  0  0  0  0  0  0  0  0  0  0
   -1.7227  -22.2286   33.8156 N   0  0  0  0  0  0  0  0  0  0  0  0
   -1.2105  -18.6617   30.8864 H   0  0  0  0  0  0  0  0  0  0  0  0
    0.6876  -16.8650   30.4334 H   0  0  0  0  0  0  0  0  0  0  0  0
    2.0384  -17.8082   30.5458 H   0  0  0  0  0  0  0  0  0  0  0  0
    1.0120  -15.6406   28.2451 H   0  0  0  0  0  0  0  0  0  0  0  0
    3.0487  -17.5485   27.6604 H   0  0  0  0  0  0  0  0  0  0  0  0
    1.2212  -17.9237   27.0613 H   0  0  0  0  0  0  0  0  0  0  0  0
    3.0781  -18.2976   25.6598 H   0  0  0  0  0  0  0  0  0  0  0  0
    4.0440  -15.9511   26.8504 H   0  0  0  0  0  0  0  0  0  0  0  0
    5.2841  -10.7975   27.4181 H   0  0  0  0  0  0  0  0  0  0  0  0
    7.5809  -10.3630   28.3628 H   0  0  0  0  0  0  0  0  0  0  0  0
    9.3230  -12.4859   26.3553 H   0  0  0  0  0  0  0  0  0  0  0  0
    8.6082  -15.0858   25.2370 H   0  0  0  0  0  0  0  0  0  0  0  0
   10.0202  -14.4751   26.0346 H   0  0  0  0  0  0  0  0  0  0  0  0
   10.9240  -14.0158   23.9556 H   0  0  0  0  0  0  0  0  0  0  0  0
    9.4004  -14.3795   23.1675 H   0  0  0  0  0  0  0  0  0  0  0  0
   10.4511  -11.7393   24.1665 H   0  0  0  0  0  0  0  0  0  0  0  0
    9.4470  -12.0314   22.7461 H   0  0  0  0  0  0  0  0  0  0  0  0
    8.4149  -10.9312   24.9973 H   0  0  0  0  0  0  0  0  0  0  0  0
    7.4215  -12.0516   24.1165 H   0  0  0  0  0  0  0  0  0  0  0  0
   -2.9451  -19.1337   33.7869 H   0  0  0  0  0  0  0  0  0  0  0  0
   -4.0947  -20.8065   35.5574 H   0  0  0  0  0  0  0  0  0  0  0  0
   -2.8882  -23.0418   35.2497 H   0  0  0  0  0  0  0  0  0  0  0  0
  1  2  2  0
  2  3  1  0
  3  4  1  0
  4  5  1  0
  5  6  1  0
  6  7  1  0
  5  8  1  0
  8  9  1  0
  9 10  2  0
  9 11  1  0
 11 12  2  0
 12 13  1  0
 13 14  2  0
 14 15  1  0
 15 16  1  0
 16 17  1  0
 17 18  1  0
 18 19  1  0
 19 20  1  0
  2 21  1  0
 21 22  1  0
 22 23  2  0
 23 24  1  0
 24 25  1  0
 15 11  1  0
 20 16  1  0
 25 21  2  0
  3 26  1  0
  4 27  1  0
  4 28  1  0
  5 29  1  0
  6 30  1  0
  6 31  1  0
  7 32  1  0
  8 33  1  0
 12 34  1  0
 13 35  1  0
 16 36  1  0
 17 37  1  0
 17 38  1  0
 18 39  1  0
 18 40  1  0
 19 41  1  0
 19 42  1  0
 20 43  1  0
 20 44  1  0
 22 45  1  0
 23 46  1  0
 24 47  1  0
M  END
>  <Energy>  (988) 
1086.439240557492

>  <compound_id>  (988) 
18701

>  <target_id>  (988) 
1

>  <reference_id>  (988) 
81

>  <inspiration_ids>  (988) 
[123, 81]

>  <energy_score>  (988) 
1025.7398705104747

>  <distance_score>  (988) 
14.057616197783958

>  <path>  (988) 
/opt/xchem-fragalysis-2/maxwin/BulkDock/SCRATCH/511024/C18701-P81/C18701-P81.minimised.mol

>  <scratch_subdir>  (988) 
/opt/xchem-fragalysis-2/maxwin/BulkDock/SCRATCH/511024/C18701-P81

>  <fragmenstein_runtime>  (988) 
42.1259241104126

>  <fragmenstein_outcome>  (988) 
too moved

>  <fragmenstein_mode>  (988) 
expansion

>  <fragmenstein_error>  (988) 


$$$$
C46487-P123
     RDKit          3D

 43 46  0  0  0  0  0  0  0  0999 V2000
   -1.8027  -12.6165   18.4072 O   0  0  0  0  0  0  0  0  0  0  0  0
   -1.0742  -13.2154   19.1475 C   0  0  0  0  0  0  0  0  0  0  0  0
   -1.3788  -14.0488   20.3204 N   0  0  0  0  0  0  0  0  0  0  0  0
   -2.6306  -14.3138   20.9864 C   0  0  0  0  0  0  0  0  0  0  0  0
   -4.0769  -13.1362   20.3414 C   0  0  0  0  0  0  0  0  0  0  0  0
   -5.5614  -13.0054   21.9263 C   0  0  0  0  0  0  0  0  0  0  0  0
   -5.0433  -14.3379   23.1673 N   0  0  0  0  0  0  0  0  0  0  0  0
   -3.0861  -14.9068   22.8875 N   0  0  0  0  0  0  0  0  0  0  0  0
   -2.3921  -15.4483   24.4509 C   0  0  0  0  0  0  0  0  0  0  0  0
   -2.1707  -14.4222   25.7043 C   0  0  0  0  0  0  0  0  0  0  0  0
   -2.0040  -15.2810   27.2772 C   0  0  0  0  0  0  0  0  0  0  0  0
   -2.2362  -16.8010   26.9941 C   0  0  0  0  0  0  0  0  0  0  0  0
   -2.5693  -16.8392   25.4974 C   0  0  0  0  0  0  0  0  0  0  0  0
    0.3706  -12.9395   18.8275 C   0  0  0  0  0  0  0  0  0  0  0  0
    1.5284  -13.5397   19.2577 N   0  0  0  0  0  0  0  0  0  0  0  0
    2.6821  -12.9311   18.8770 N   0  0  0  0  0  0  0  0  0  0  0  0
    2.2735  -11.9570   18.0715 C   0  0  0  0  0  0  0  0  0  0  0  0
    0.8635  -11.8985   18.0123 C   0  0  0  0  0  0  0  0  0  0  0  0
    0.1448  -10.8730   17.1953 C   0  0  0  0  0  0  0  0  0  0  0  0
    1.0866   -9.7353   16.7556 C   0  0  0  0  0  0  0  0  0  0  0  0
    2.4471  -10.2572   16.2649 C   0  0  0  0  0  0  0  0  0  0  0  0
    3.1938  -11.0270   17.3671 C   0  0  0  0  0  0  0  0  0  0  0  0
   -0.5131  -14.3336   20.7585 H   0  0  0  0  0  0  0  0  0  0  0  0
   -4.1075  -12.5097   19.4565 H   0  0  0  0  0  0  0  0  0  0  0  0
   -6.5631  -12.5934   21.8706 H   0  0  0  0  0  0  0  0  0  0  0  0
   -3.4578  -15.5723   24.4085 H   0  0  0  0  0  0  0  0  0  0  0  0
   -2.7565  -13.5013   25.8735 H   0  0  0  0  0  0  0  0  0  0  0  0
   -1.3612  -13.7944   25.3680 H   0  0  0  0  0  0  0  0  0  0  0  0
   -1.1176  -15.0467   27.8330 H   0  0  0  0  0  0  0  0  0  0  0  0
   -2.6263  -15.0285   28.1063 H   0  0  0  0  0  0  0  0  0  0  0  0
   -3.0780  -17.1912   27.5361 H   0  0  0  0  0  0  0  0  0  0  0  0
   -1.3675  -17.4527   27.1395 H   0  0  0  0  0  0  0  0  0  0  0  0
   -3.5111  -16.5927   25.6898 H   0  0  0  0  0  0  0  0  0  0  0  0
   -2.2439  -17.8394   25.3117 H   0  0  0  0  0  0  0  0  0  0  0  0
    1.6100  -14.3122   19.9102 H   0  0  0  0  0  0  0  0  0  0  0  0
   -0.2714  -11.3612   16.3058 H   0  0  0  0  0  0  0  0  0  0  0  0
   -0.6875  -10.4380   17.7589 H   0  0  0  0  0  0  0  0  0  0  0  0
    1.2523   -9.0541   17.6004 H   0  0  0  0  0  0  0  0  0  0  0  0
    0.6038   -9.1499   15.9650 H   0  0  0  0  0  0  0  0  0  0  0  0
    3.0665   -9.4217   15.9195 H   0  0  0  0  0  0  0  0  0  0  0  0
    2.2860  -10.9157   15.4016 H   0  0  0  0  0  0  0  0  0  0  0  0
    4.0367  -11.5725   16.9285 H   0  0  0  0  0  0  0  0  0  0  0  0
    3.6034  -10.3152   18.0940 H   0  0  0  0  0  0  0  0  0  0  0  0
  1  2  2  0
  2  3  1  0
  3  4  1  0
  4  5  2  0
  5  6  1  0
  6  7  2  0
  7  8  1  0
  8  9  1  0
  9 10  1  0
 10 11  1  0
 11 12  1  0
 12 13  1  0
  2 14  1  0
 14 15  1  0
 15 16  1  0
 16 17  2  0
 17 18  1  0
 18 19  1  0
 19 20  1  0
 20 21  1  0
 21 22  1  0
  8  4  1  0
 13  9  1  0
 18 14  2  0
 22 17  1  0
  3 23  1  0
  5 24  1  0
  6 25  1  0
  9 26  1  0
 10 27  1  0
 10 28  1  0
 11 29  1  0
 11 30  1  0
 12 31  1  0
 12 32  1  0
 13 33  1  0
 13 34  1  0
 15 35  1  0
 19 36  1  0
 19 37  1  0
 20 38  1  0
 20 39  1  0
 21 40  1  0
 21 41  1  0
 22 42  1  0
 22 43  1  0
M  END
>  <Energy>  (989) 
958.22770573944456

>  <compound_id>  (989) 
46487

>  <target_id>  (989) 
1

>  <reference_id>  (989) 
123

>  <inspiration_ids>  (989) 
[123, 81]

>  <energy_score>  (989) 
906.1740842344366

>  <distance_score>  (989) 
16.593719093552103

>  <path>  (989) 
/opt/xchem-fragalysis-2/maxwin/BulkDock/SCRATCH/511024/C46487-P123/C46487-P123.minimised.mol

>  <scratch_subdir>  (989) 
/opt/xchem-fragalysis-2/maxwin/BulkDock/SCRATCH/511024/C46487-P123

>  <fragmenstein_runtime>  (989) 
43.24366569519043

>  <fragmenstein_outcome>  (989) 
too moved

>  <fragmenstein_mode>  (989) 
expansion

>  <fragmenstein_error>  (989) 


$$$$
C46487-P81
     RDKit          3D

 43 46  0  0  0  0  0  0  0  0999 V2000
   -0.7100   -7.6694   27.6377 O   0  0  0  0  0  0  0  0  0  0  0  0
   -1.3828   -7.6083   26.6485 C   0  0  0  0  0  0  0  0  0  0  0  0
   -2.6816   -8.1953   26.3469 N   0  0  0  0  0  0  0  0  0  0  0  0
   -3.4837   -9.0773   27.0842 C   0  0  0  0  0  0  0  0  0  0  0  0
   -3.3225   -9.6119   28.3517 C   0  0  0  0  0  0  0  0  0  0  0  0
   -4.4126  -10.4868   28.5646 C   0  0  0  0  0  0  0  0  0  0  0  0
   -5.2321  -10.5244   27.5148 N   0  0  0  0  0  0  0  0  0  0  0  0
   -4.6666   -9.6637   26.6318 N   0  0  0  0  0  0  0  0  0  0  0  0
   -5.3419   -9.3515   25.3800 C   0  0  0  0  0  0  0  0  0  0  0  0
   -6.3978  -10.3638   24.8901 C   0  0  0  0  0  0  0  0  0  0  0  0
   -7.7320   -9.6348   24.9781 C   0  0  0  0  0  0  0  0  0  0  0  0
   -7.3634   -8.1935   24.6801 C   0  0  0  0  0  0  0  0  0  0  0  0
   -6.0732   -7.9997   25.4613 C   0  0  0  0  0  0  0  0  0  0  0  0
   -0.7422   -6.8936   25.4930 C   0  0  0  0  0  0  0  0  0  0  0  0
    0.6078   -6.5484   25.5641 N   0  0  0  0  0  0  0  0  0  0  0  0
    1.1377   -6.0186   24.4409 N   0  0  0  0  0  0  0  0  0  0  0  0
    0.0943   -5.9444   23.6209 C   0  0  0  0  0  0  0  0  0  0  0  0
   -1.0999   -6.4538   24.2185 C   0  0  0  0  0  0  0  0  0  0  0  0
   -2.3991   -6.4632   23.4859 C   0  0  0  0  0  0  0  0  0  0  0  0
   -2.3669   -5.5401   22.2548 C   0  0  0  0  0  0  0  0  0  0  0  0
   -1.0776   -5.7121   21.4352 C   0  0  0  0  0  0  0  0  0  0  0  0
    0.1732   -5.3570   22.2558 C   0  0  0  0  0  0  0  0  0  0  0  0
   -2.9136   -8.0043   25.3862 H   0  0  0  0  0  0  0  0  0  0  0  0
   -2.5072   -9.4098   29.0338 H   0  0  0  0  0  0  0  0  0  0  0  0
   -4.6259  -11.0961   29.4340 H   0  0  0  0  0  0  0  0  0  0  0  0
   -4.5521   -9.3072   24.6189 H   0  0  0  0  0  0  0  0  0  0  0  0
   -6.4249  -11.3092   25.4350 H   0  0  0  0  0  0  0  0  0  0  0  0
   -6.1945  -10.6069   23.8390 H   0  0  0  0  0  0  0  0  0  0  0  0
   -8.4682  -10.0313   24.2731 H   0  0  0  0  0  0  0  0  0  0  0  0
   -8.1436   -9.7212   25.9906 H   0  0  0  0  0  0  0  0  0  0  0  0
   -8.1436   -7.4908   24.9859 H   0  0  0  0  0  0  0  0  0  0  0  0
   -7.1812   -8.0599   23.6072 H   0  0  0  0  0  0  0  0  0  0  0  0
   -5.4708   -7.1846   25.0473 H   0  0  0  0  0  0  0  0  0  0  0  0
   -6.3103   -7.7369   26.5001 H   0  0  0  0  0  0  0  0  0  0  0  0
    1.2094   -6.6955   26.3692 H   0  0  0  0  0  0  0  0  0  0  0  0
   -2.6131   -7.4881   23.1591 H   0  0  0  0  0  0  0  0  0  0  0  0
   -3.2137   -6.1476   24.1469 H   0  0  0  0  0  0  0  0  0  0  0  0
   -3.2395   -5.7459   21.6245 H   0  0  0  0  0  0  0  0  0  0  0  0
   -2.4465   -4.4945   22.5792 H   0  0  0  0  0  0  0  0  0  0  0  0
   -1.1166   -5.0827   20.5390 H   0  0  0  0  0  0  0  0  0  0  0  0
   -1.0088   -6.7529   21.0933 H   0  0  0  0  0  0  0  0  0  0  0  0
    0.2513   -4.2667   22.3448 H   0  0  0  0  0  0  0  0  0  0  0  0
    1.0688   -5.7103   21.7327 H   0  0  0  0  0  0  0  0  0  0  0  0
  1  2  2  0
  2  3  1  0
  3  4  1  0
  4  5  2  0
  5  6  1  0
  6  7  2  0
  7  8  1  0
  8  9  1  0
  9 10  1  0
 10 11  1  0
 11 12  1  0
 12 13  1  0
  2 14  1  0
 14 15  1  0
 15 16  1  0
 16 17  2  0
 17 18  1  0
 18 19  1  0
 19 20  1  0
 20 21  1  0
 21 22  1  0
  8  4  1  0
 13  9  1  0
 18 14  2  0
 22 17  1  0
  3 23  1  0
  5 24  1  0
  6 25  1  0
  9 26  1  0
 10 27  1  0
 10 28  1  0
 11 29  1  0
 11 30  1  0
 12 31  1  0
 12 32  1  0
 13 33  1  0
 13 34  1  0
 15 35  1  0
 19 36  1  0
 19 37  1  0
 20 38  1  0
 20 39  1  0
 21 40  1  0
 21 41  1  0
 22 42  1  0
 22 43  1  0
M  END
>  <Energy>  (990) 
28.898766551889132

>  <compound_id>  (990) 
46487

>  <target_id>  (990) 
1

>  <reference_id>  (990) 
81

>  <inspiration_ids>  (990) 
[123, 81]

>  <energy_score>  (990) 
-23.154854953116455

>  <distance_score>  (990) 
16.94270599982534

>  <path>  (990) 
/opt/xchem-fragalysis-2/maxwin/BulkDock/SCRATCH/511024/C46487-P81/C46487-P81.minimised.mol

>  <scratch_subdir>  (990) 
/opt/xchem-fragalysis-2/maxwin/BulkDock/SCRATCH/511024/C46487-P81

>  <fragmenstein_runtime>  (990) 
33.580050468444824

>  <fragmenstein_outcome>  (990) 
too moved

>  <fragmenstein_mode>  (990) 
expansion

>  <fragmenstein_error>  (990) 


$$$$
C18702-P123
     RDKit          3D

 33 35  0  0  0  0  0  0  0  0999 V2000
   -0.6109  -11.7534   18.4900 O   0  0  0  0  0  0  0  0  0  0  0  0
    0.2305  -12.4444   18.9744 C   0  0  0  0  0  0  0  0  0  0  0  0
    1.8460  -12.1880   19.1404 N   0  0  0  0  0  0  0  0  0  0  0  0
    2.7472  -11.0126   18.6171 C   0  0  0  0  0  0  0  0  0  0  0  0
    2.5493   -9.9228   17.7285 C   0  0  0  0  0  0  0  0  0  0  0  0
    3.7428   -9.1293   17.5953 C   0  0  0  0  0  0  0  0  0  0  0  0
    4.7150   -9.6090   18.3595 N   0  0  0  0  0  0  0  0  0  0  0  0
    4.1394  -10.7360   18.9427 N   0  0  0  0  0  0  0  0  0  0  0  0
    4.9282  -11.5779   19.8366 C   0  0  0  0  0  0  0  0  0  0  0  0
    6.0499  -10.8543   20.5893 C   0  0  0  0  0  0  0  0  0  0  0  0
    7.2988  -10.9853   19.7148 C   0  0  0  0  0  0  0  0  0  0  0  0
    6.9746  -12.0233   18.6426 C   0  0  0  0  0  0  0  0  0  0  0  0
    5.6722  -12.6795   19.0840 C   0  0  0  0  0  0  0  0  0  0  0  0
   -0.4917  -13.8998   19.6220 C   0  0  0  0  0  0  0  0  0  0  0  0
   -1.9811  -14.1766   19.5753 C   0  0  0  0  0  0  0  0  0  0  0  0
   -2.2365  -15.4707   19.9653 C   0  0  0  0  0  0  0  0  0  0  0  0
   -1.0207  -15.8982   20.4001 N   0  0  0  0  0  0  0  0  0  0  0  0
    0.0057  -14.9984   20.2766 N   0  0  0  0  0  0  0  0  0  0  0  0
    2.2612  -12.9483   19.6759 H   0  0  0  0  0  0  0  0  0  0  0  0
    1.6121   -9.7355   17.2202 H   0  0  0  0  0  0  0  0  0  0  0  0
    3.9016   -8.2461   16.9909 H   0  0  0  0  0  0  0  0  0  0  0  0
    4.2203  -12.0032   20.5566 H   0  0  0  0  0  0  0  0  0  0  0  0
    6.2348  -11.3695   21.5406 H   0  0  0  0  0  0  0  0  0  0  0  0
    5.8207   -9.8108   20.8284 H   0  0  0  0  0  0  0  0  0  0  0  0
    7.5611  -10.0274   19.2524 H   0  0  0  0  0  0  0  0  0  0  0  0
    8.1570  -11.2975   20.3199 H   0  0  0  0  0  0  0  0  0  0  0  0
    7.7796  -12.7551   18.5237 H   0  0  0  0  0  0  0  0  0  0  0  0
    6.8390  -11.5273   17.6743 H   0  0  0  0  0  0  0  0  0  0  0  0
    5.8973  -13.5059   19.7696 H   0  0  0  0  0  0  0  0  0  0  0  0
    5.1134  -13.0883   18.2362 H   0  0  0  0  0  0  0  0  0  0  0  0
   -2.6970  -13.4778   19.1654 H   0  0  0  0  0  0  0  0  0  0  0  0
   -3.1308  -16.0721   20.0132 H   0  0  0  0  0  0  0  0  0  0  0  0
   -0.8271  -16.7689   20.8780 H   0  0  0  0  0  0  0  0  0  0  0  0
  1  2  2  0
  2  3  1  0
  3  4  1  0
  4  5  2  0
  5  6  1  0
  6  7  2  0
  7  8  1  0
  8  9  1  0
  9 10  1  0
 10 11  1  0
 11 12  1  0
 12 13  1  0
  2 14  1  0
 14 15  1  0
 15 16  2  0
 16 17  1  0
 17 18  1  0
  8  4  1  0
 13  9  1  0
 18 14  2  0
  3 19  1  0
  5 20  1  0
  6 21  1  0
  9 22  1  0
 10 23  1  0
 10 24  1  0
 11 25  1  0
 11 26  1  0
 12 27  1  0
 12 28  1  0
 13 29  1  0
 13 30  1  0
 15 31  1  0
 16 32  1  0
 17 33  1  0
M  END
>  <Energy>  (991) 
148.60808031446234

>  <compound_id>  (991) 
18702

>  <target_id>  (991) 
1

>  <reference_id>  (991) 
123

>  <inspiration_ids>  (991) 
[123, 81]

>  <energy_score>  (991) 
31.225687159263998

>  <distance_score>  (991) 
16.19618192070882

>  <path>  (991) 
/opt/xchem-fragalysis-2/maxwin/BulkDock/SCRATCH/511024/C18702-P123/C18702-P123.minimised.mol

>  <scratch_subdir>  (991) 
/opt/xchem-fragalysis-2/maxwin/BulkDock/SCRATCH/511024/C18702-P123

>  <fragmenstein_runtime>  (991) 
9.868751287460327

>  <fragmenstein_outcome>  (991) 
too moved

>  <fragmenstein_mode>  (991) 
expansion

>  <fragmenstein_error>  (991) 


$$$$
C18702-P81
     RDKit          3D

 33 35  0  0  0  0  0  0  0  0999 V2000
    3.4533  -10.6325   21.4551 O   0  0  0  0  0  0  0  0  0  0  0  0
    4.4570  -10.7864   22.0666 C   0  0  0  0  0  0  0  0  0  0  0  0
    5.8386   -9.9472   22.0333 N   0  0  0  0  0  0  0  0  0  0  0  0
    6.2593   -8.8194   21.1600 C   0  0  0  0  0  0  0  0  0  0  0  0
    5.6739   -8.2452   20.0195 C   0  0  0  0  0  0  0  0  0  0  0  0
    6.4097   -7.0932   19.6282 C   0  0  0  0  0  0  0  0  0  0  0  0
    7.4765   -6.9176   20.4015 N   0  0  0  0  0  0  0  0  0  0  0  0
    7.4264   -7.9953   21.2680 N   0  0  0  0  0  0  0  0  0  0  0  0
    8.5024   -8.1319   22.2316 C   0  0  0  0  0  0  0  0  0  0  0  0
    9.1972   -9.5051   22.2353 C   0  0  0  0  0  0  0  0  0  0  0  0
    9.2386   -9.9476   23.6967 C   0  0  0  0  0  0  0  0  0  0  0  0
    9.0856   -8.6633   24.4958 C   0  0  0  0  0  0  0  0  0  0  0  0
    8.0826   -7.8635   23.6799 C   0  0  0  0  0  0  0  0  0  0  0  0
    4.3353  -12.1066   23.0873 C   0  0  0  0  0  0  0  0  0  0  0  0
    5.1770  -12.8522   24.0053 C   0  0  0  0  0  0  0  0  0  0  0  0
    4.5811  -14.0653   24.3352 C   0  0  0  0  0  0  0  0  0  0  0  0
    3.5460  -14.0468   23.5055 N   0  0  0  0  0  0  0  0  0  0  0  0
    3.1460  -12.7942   23.2355 N   0  0  0  0  0  0  0  0  0  0  0  0
    6.4667  -10.2980   22.7433 H   0  0  0  0  0  0  0  0  0  0  0  0
    4.7524   -8.5942   19.5711 H   0  0  0  0  0  0  0  0  0  0  0  0
    6.1843   -6.3949   18.8324 H   0  0  0  0  0  0  0  0  0  0  0  0
    9.2628   -7.3901   21.9519 H   0  0  0  0  0  0  0  0  0  0  0  0
    8.7089  -10.2572   21.6076 H   0  0  0  0  0  0  0  0  0  0  0  0
   10.2203   -9.3932   21.8550 H   0  0  0  0  0  0  0  0  0  0  0  0
   10.1625  -10.4802   23.9406 H   0  0  0  0  0  0  0  0  0  0  0  0
    8.3998  -10.6209   23.9075 H   0  0  0  0  0  0  0  0  0  0  0  0
    8.7392   -8.8474   25.5167 H   0  0  0  0  0  0  0  0  0  0  0  0
   10.0432   -8.1319   24.5474 H   0  0  0  0  0  0  0  0  0  0  0  0
    7.0662   -8.2167   23.8869 H   0  0  0  0  0  0  0  0  0  0  0  0
    8.1137   -6.7969   23.9244 H   0  0  0  0  0  0  0  0  0  0  0  0
    6.1842  -12.5768   24.2868 H   0  0  0  0  0  0  0  0  0  0  0  0
    4.9844  -14.9279   24.8149 H   0  0  0  0  0  0  0  0  0  0  0  0
    3.0972  -14.8229   23.0437 H   0  0  0  0  0  0  0  0  0  0  0  0
  1  2  2  0
  2  3  1  0
  3  4  1  0
  4  5  2  0
  5  6  1  0
  6  7  2  0
  7  8  1  0
  8  9  1  0
  9 10  1  0
 10 11  1  0
 11 12  1  0
 12 13  1  0
  2 14  1  0
 14 15  1  0
 15 16  2  0
 16 17  1  0
 17 18  1  0
  8  4  1  0
 13  9  1  0
 18 14  2  0
  3 19  1  0
  5 20  1  0
  6 21  1  0
  9 22  1  0
 10 23  1  0
 10 24  1  0
 11 25  1  0
 11 26  1  0
 12 27  1  0
 12 28  1  0
 13 29  1  0
 13 30  1  0
 15 31  1  0
 16 32  1  0
 17 33  1  0
M  END
>  <Energy>  (992) 
144.24226223094962

>  <compound_id>  (992) 
18702

>  <target_id>  (992) 
1

>  <reference_id>  (992) 
81

>  <inspiration_ids>  (992) 
[123, 81]

>  <energy_score>  (992) 
26.859869075752783

>  <distance_score>  (992) 
16.897360687632418

>  <path>  (992) 
/opt/xchem-fragalysis-2/maxwin/BulkDock/SCRATCH/511024/C18702-P81/C18702-P81.minimised.mol

>  <scratch_subdir>  (992) 
/opt/xchem-fragalysis-2/maxwin/BulkDock/SCRATCH/511024/C18702-P81

>  <fragmenstein_runtime>  (992) 
12.083393096923828

>  <fragmenstein_outcome>  (992) 
too moved

>  <fragmenstein_mode>  (992) 
expansion

>  <fragmenstein_error>  (992) 


$$$$
C28371-P123
     RDKit          3D

 49 51  0  0  0  0  0  0  0  0999 V2000
   -6.7932  -11.7645   24.2906 C   0  0  0  0  0  0  0  0  0  0  0  0
   -6.0900  -11.9833   25.6281 C   0  0  0  0  0  0  0  0  0  0  0  0
   -5.4414  -13.3819   25.7822 C   0  0  0  0  0  0  0  0  0  0  0  0
   -5.9885  -14.2127   26.8572 N   0  0  0  0  0  0  0  0  0  0  0  0
   -6.4430  -13.8695   28.1733 C   0  0  0  0  0  0  0  0  0  0  0  0
   -6.5653  -12.8056   28.7024 O   0  0  0  0  0  0  0  0  0  0  0  0
   -6.8465  -15.0553   28.9611 C   0  0  0  0  0  0  0  0  0  0  0  0
   -7.8336  -15.0821   29.9845 C   0  0  0  0  0  0  0  0  0  0  0  0
   -7.9426  -16.2657   30.5886 N   0  0  0  0  0  0  0  0  0  0  0  0
   -6.9600  -16.9948   30.0242 N   0  0  0  0  0  0  0  0  0  0  0  0
   -6.3443  -16.3479   28.9808 C   0  0  0  0  0  0  0  0  0  0  0  0
   -5.1166  -10.8069   25.9898 C   0  0  0  0  0  0  0  0  0  0  0  0
   -4.4445   -9.9705   24.9786 N   0  0  0  0  0  0  0  0  0  0  0  0
   -4.1307   -8.5551   24.9751 C   0  0  0  0  0  0  0  0  0  0  0  0
   -4.4094   -7.6936   25.7578 O   0  0  0  0  0  0  0  0  0  0  0  0
   -3.2081   -8.0926   23.8462 C   0  0  0  0  0  0  0  0  0  0  0  0
   -2.6873   -6.7533   23.7506 C   0  0  0  0  0  0  0  0  0  0  0  0
   -1.8349   -6.7234   22.6814 C   0  0  0  0  0  0  0  0  0  0  0  0
   -1.8377   -7.9897   22.1793 N   0  0  0  0  0  0  0  0  0  0  0  0
   -1.0608   -8.4547   21.0350 C   0  0  0  0  0  0  0  0  0  0  0  0
   -1.7391   -8.0634   19.7103 C   0  0  0  0  0  0  0  0  0  0  0  0
   -0.6782   -7.3461   18.8806 C   0  0  0  0  0  0  0  0  0  0  0  0
    0.2944   -6.7792   19.8980 C   0  0  0  0  0  0  0  0  0  0  0  0
    0.3562   -7.8518   20.9776 C   0  0  0  0  0  0  0  0  0  0  0  0
   -2.6757   -8.8524   22.8566 N   0  0  0  0  0  0  0  0  0  0  0  0
   -6.0957  -11.6659   23.4580 H   0  0  0  0  0  0  0  0  0  0  0  0
   -7.4753  -12.5923   24.0702 H   0  0  0  0  0  0  0  0  0  0  0  0
   -7.3890  -10.8454   24.3229 H   0  0  0  0  0  0  0  0  0  0  0  0
   -6.8952  -11.9255   26.3716 H   0  0  0  0  0  0  0  0  0  0  0  0
   -4.3659  -13.3048   25.9698 H   0  0  0  0  0  0  0  0  0  0  0  0
   -5.5703  -13.9702   24.8678 H   0  0  0  0  0  0  0  0  0  0  0  0
   -6.0941  -15.2107   26.7217 H   0  0  0  0  0  0  0  0  0  0  0  0
   -8.4660  -14.2645   30.3090 H   0  0  0  0  0  0  0  0  0  0  0  0
   -6.7706  -17.9231   30.4013 H   0  0  0  0  0  0  0  0  0  0  0  0
   -5.5505  -16.8333   28.4326 H   0  0  0  0  0  0  0  0  0  0  0  0
   -4.3237  -11.1665   26.6561 H   0  0  0  0  0  0  0  0  0  0  0  0
   -5.6908  -10.0928   26.5951 H   0  0  0  0  0  0  0  0  0  0  0  0
   -3.9761  -10.4137   24.1994 H   0  0  0  0  0  0  0  0  0  0  0  0
   -2.9266   -5.9311   24.4126 H   0  0  0  0  0  0  0  0  0  0  0  0
   -1.2459   -5.9216   22.2623 H   0  0  0  0  0  0  0  0  0  0  0  0
   -0.9988   -9.5427   21.1488 H   0  0  0  0  0  0  0  0  0  0  0  0
   -2.5961   -7.3978   19.8700 H   0  0  0  0  0  0  0  0  0  0  0  0
   -2.1159   -8.9446   19.1796 H   0  0  0  0  0  0  0  0  0  0  0  0
   -0.1622   -8.0558   18.2263 H   0  0  0  0  0  0  0  0  0  0  0  0
   -1.1112   -6.5681   18.2446 H   0  0  0  0  0  0  0  0  0  0  0  0
    1.2776   -6.5789   19.4617 H   0  0  0  0  0  0  0  0  0  0  0  0
   -0.0896   -5.8376   20.3036 H   0  0  0  0  0  0  0  0  0  0  0  0
    0.7160   -7.4537   21.9317 H   0  0  0  0  0  0  0  0  0  0  0  0
    1.0733   -8.6182   20.6721 H   0  0  0  0  0  0  0  0  0  0  0  0
  1  2  1  0
  2  3  1  0
  3  4  1  0
  4  5  1  0
  5  6  2  0
  5  7  1  0
  7  8  1  0
  8  9  2  0
  9 10  1  0
 10 11  1  0
  2 12  1  0
 12 13  1  0
 13 14  1  0
 14 15  2  0
 14 16  1  0
 16 17  1  0
 17 18  2  0
 18 19  1  0
 19 20  1  0
 20 21  1  0
 21 22  1  0
 22 23  1  0
 23 24  1  0
 19 25  1  0
 11  7  2  0
 25 16  2  0
 24 20  1  0
  1 26  1  0
  1 27  1  0
  1 28  1  0
  2 29  1  0
  3 30  1  0
  3 31  1  0
  4 32  1  0
  8 33  1  0
 10 34  1  0
 11 35  1  0
 12 36  1  0
 12 37  1  0
 13 38  1  0
 17 39  1  0
 18 40  1  0
 20 41  1  0
 21 42  1  0
 21 43  1  0
 22 44  1  0
 22 45  1  0
 23 46  1  0
 23 47  1  0
 24 48  1  0
 24 49  1  0
M  END
>  <Energy>  (993) 
47.105319369740769

>  <compound_id>  (993) 
28371

>  <target_id>  (993) 
1

>  <reference_id>  (993) 
123

>  <inspiration_ids>  (993) 
[123, 81]

>  <energy_score>  (993) 
-17.675038453041793

>  <distance_score>  (993) 
14.28680526247433

>  <path>  (993) 
/opt/xchem-fragalysis-2/maxwin/BulkDock/SCRATCH/511024/C28371-P123/C28371-P123.minimised.mol

>  <scratch_subdir>  (993) 
/opt/xchem-fragalysis-2/maxwin/BulkDock/SCRATCH/511024/C28371-P123

>  <fragmenstein_runtime>  (993) 
51.662949323654175

>  <fragmenstein_outcome>  (993) 
too moved

>  <fragmenstein_mode>  (993) 
expansion

>  <fragmenstein_error>  (993) 


$$$$
C28371-P81
     RDKit          3D

 49 51  0  0  0  0  0  0  0  0999 V2000
   -3.6950  -14.0573   25.4320 C   0  0  0  0  0  0  0  0  0  0  0  0
   -2.6601  -15.1241   24.9109 C   0  0  0  0  0  0  0  0  0  0  0  0
   -3.1538  -16.4647   25.6929 C   0  0  0  0  0  0  0  0  0  0  0  0
   -3.7659  -16.5844   27.0069 N   0  0  0  0  0  0  0  0  0  0  0  0
   -5.1192  -16.3615   27.4393 C   0  0  0  0  0  0  0  0  0  0  0  0
   -6.0681  -15.9428   26.8456 O   0  0  0  0  0  0  0  0  0  0  0  0
   -5.3797  -16.8230   28.8126 C   0  0  0  0  0  0  0  0  0  0  0  0
   -6.3336  -16.2956   29.7183 C   0  0  0  0  0  0  0  0  0  0  0  0
   -6.4792  -17.0297   30.8215 N   0  0  0  0  0  0  0  0  0  0  0  0
   -5.7042  -18.1056   30.5904 N   0  0  0  0  0  0  0  0  0  0  0  0
   -4.9747  -17.9968   29.4309 C   0  0  0  0  0  0  0  0  0  0  0  0
   -0.9279  -14.3441   24.3873 C   0  0  0  0  0  0  0  0  0  0  0  0
    0.6690  -13.9972   23.4788 N   0  0  0  0  0  0  0  0  0  0  0  0
    1.9732  -12.6858   23.7407 C   0  0  0  0  0  0  0  0  0  0  0  0
    1.9337  -11.9506   24.6416 O   0  0  0  0  0  0  0  0  0  0  0  0
    3.3507  -12.2500   22.5869 C   0  0  0  0  0  0  0  0  0  0  0  0
    3.8010  -12.7369   21.0935 C   0  0  0  0  0  0  0  0  0  0  0  0
    4.9888  -12.2242   20.5088 C   0  0  0  0  0  0  0  0  0  0  0  0
    5.2932  -11.0429   21.2971 N   0  0  0  0  0  0  0  0  0  0  0  0
    6.7076  -10.5694   21.4565 C   0  0  0  0  0  0  0  0  0  0  0  0
    7.2885   -9.7150   20.3150 C   0  0  0  0  0  0  0  0  0  0  0  0
    7.6339   -8.3524   20.9273 C   0  0  0  0  0  0  0  0  0  0  0  0
    7.0687   -8.3409   22.3379 C   0  0  0  0  0  0  0  0  0  0  0  0
    7.0355   -9.8015   22.7416 C   0  0  0  0  0  0  0  0  0  0  0  0
    4.2326  -11.1011   22.6148 N   0  0  0  0  0  0  0  0  0  0  0  0
   -3.4300  -13.0213   25.2250 H   0  0  0  0  0  0  0  0  0  0  0  0
   -3.8813  -14.1452   26.5033 H   0  0  0  0  0  0  0  0  0  0  0  0
   -4.6696  -14.2358   24.9589 H   0  0  0  0  0  0  0  0  0  0  0  0
   -3.1098  -15.3041   23.9411 H   0  0  0  0  0  0  0  0  0  0  0  0
   -4.0674  -16.6853   25.1392 H   0  0  0  0  0  0  0  0  0  0  0  0
   -2.5393  -17.3581   25.5688 H   0  0  0  0  0  0  0  0  0  0  0  0
   -3.2484  -17.0275   27.7570 H   0  0  0  0  0  0  0  0  0  0  0  0
   -6.9341  -15.4024   29.5986 H   0  0  0  0  0  0  0  0  0  0  0  0
   -5.7762  -18.8978   31.2306 H   0  0  0  0  0  0  0  0  0  0  0  0
   -4.3344  -18.8080   29.1177 H   0  0  0  0  0  0  0  0  0  0  0  0
   -1.2411  -13.5006   24.9987 H   0  0  0  0  0  0  0  0  0  0  0  0
   -1.1914  -14.6806   23.3944 H   0  0  0  0  0  0  0  0  0  0  0  0
    0.8457  -14.4847   22.5766 H   0  0  0  0  0  0  0  0  0  0  0  0
    3.1905  -13.5173   20.7521 H   0  0  0  0  0  0  0  0  0  0  0  0
    5.5818  -12.4818   19.6476 H   0  0  0  0  0  0  0  0  0  0  0  0
    7.2962  -11.4951   21.4595 H   0  0  0  0  0  0  0  0  0  0  0  0
    8.2116  -10.1741   19.9388 H   0  0  0  0  0  0  0  0  0  0  0  0
    6.6274   -9.6236   19.4476 H   0  0  0  0  0  0  0  0  0  0  0  0
    7.2235   -7.5264   20.3384 H   0  0  0  0  0  0  0  0  0  0  0  0
    8.7228   -8.2287   20.9594 H   0  0  0  0  0  0  0  0  0  0  0  0
    6.0612   -7.9133   22.3486 H   0  0  0  0  0  0  0  0  0  0  0  0
    7.6817   -7.7407   23.0175 H   0  0  0  0  0  0  0  0  0  0  0  0
    6.3522   -9.9717   23.5712 H   0  0  0  0  0  0  0  0  0  0  0  0
    8.0360  -10.0948   23.0854 H   0  0  0  0  0  0  0  0  0  0  0  0
  1  2  1  0
  2  3  1  0
  3  4  1  0
  4  5  1  0
  5  6  2  0
  5  7  1  0
  7  8  1  0
  8  9  2  0
  9 10  1  0
 10 11  1  0
  2 12  1  0
 12 13  1  0
 13 14  1  0
 14 15  2  0
 14 16  1  0
 16 17  1  0
 17 18  2  0
 18 19  1  0
 19 20  1  0
 20 21  1  0
 21 22  1  0
 22 23  1  0
 23 24  1  0
 19 25  1  0
 11  7  2  0
 25 16  2  0
 24 20  1  0
  1 26  1  0
  1 27  1  0
  1 28  1  0
  2 29  1  0
  3 30  1  0
  3 31  1  0
  4 32  1  0
  8 33  1  0
 10 34  1  0
 11 35  1  0
 12 36  1  0
 12 37  1  0
 13 38  1  0
 17 39  1  0
 18 40  1  0
 20 41  1  0
 21 42  1  0
 21 43  1  0
 22 44  1  0
 22 45  1  0
 23 46  1  0
 23 47  1  0
 24 48  1  0
 24 49  1  0
M  END
>  <Energy>  (994) 
445.01526666053684

>  <compound_id>  (994) 
28371

>  <target_id>  (994) 
1

>  <reference_id>  (994) 
81

>  <inspiration_ids>  (994) 
[123, 81]

>  <energy_score>  (994) 
380.2349088377419

>  <distance_score>  (994) 
12.378057493151067

>  <path>  (994) 
/opt/xchem-fragalysis-2/maxwin/BulkDock/SCRATCH/511024/C28371-P81/C28371-P81.minimised.mol

>  <scratch_subdir>  (994) 
/opt/xchem-fragalysis-2/maxwin/BulkDock/SCRATCH/511024/C28371-P81

>  <fragmenstein_runtime>  (994) 
53.89867615699768

>  <fragmenstein_outcome>  (994) 
too moved

>  <fragmenstein_mode>  (994) 
expansion

>  <fragmenstein_error>  (994) 


$$$$
C18703-P123
     RDKit          3D

 49 51  0  0  0  0  0  0  0  0999 V2000
    8.9593  -11.3060   24.4953 C   0  0  0  0  0  0  0  0  0  0  0  0
    7.6548  -10.5787   24.8223 C   0  0  0  0  0  0  0  0  0  0  0  0
    7.8831   -9.0837   25.1164 C   0  0  0  0  0  0  0  0  0  0  0  0
    8.6868   -8.3428   24.1739 N   0  0  0  0  0  0  0  0  0  0  0  0
    8.3412   -7.7181   22.9263 C   0  0  0  0  0  0  0  0  0  0  0  0
    7.3165   -7.7204   22.3116 O   0  0  0  0  0  0  0  0  0  0  0  0
    9.4890   -6.9000   22.3922 C   0  0  0  0  0  0  0  0  0  0  0  0
   10.8949   -7.0864   22.5732 C   0  0  0  0  0  0  0  0  0  0  0  0
   11.5043   -6.0258   21.9505 C   0  0  0  0  0  0  0  0  0  0  0  0
   10.4957   -5.2954   21.4102 N   0  0  0  0  0  0  0  0  0  0  0  0
    9.2734   -5.8053   21.6304 N   0  0  0  0  0  0  0  0  0  0  0  0
    6.5894  -10.8173   23.7346 C   0  0  0  0  0  0  0  0  0  0  0  0
    5.5114  -11.7983   24.1843 N   0  0  0  0  0  0  0  0  0  0  0  0
    3.8089  -12.3318   23.3495 C   0  0  0  0  0  0  0  0  0  0  0  0
    3.5272  -11.7533   22.3859 O   0  0  0  0  0  0  0  0  0  0  0  0
    2.6149  -13.6307   23.6402 C   0  0  0  0  0  0  0  0  0  0  0  0
    0.8633  -14.0163   24.0035 C   0  0  0  0  0  0  0  0  0  0  0  0
   -0.2075  -14.1842   23.0898 C   0  0  0  0  0  0  0  0  0  0  0  0
    0.5354  -14.9820   22.0290 N   0  0  0  0  0  0  0  0  0  0  0  0
   -0.2483  -16.3094   20.9177 C   0  0  0  0  0  0  0  0  0  0  0  0
    0.1062  -16.8733   19.4448 C   0  0  0  0  0  0  0  0  0  0  0  0
   -1.0710  -17.1144   18.4845 C   0  0  0  0  0  0  0  0  0  0  0  0
   -1.8515  -15.8726   18.6391 C   0  0  0  0  0  0  0  0  0  0  0  0
   -1.8509  -15.8132   20.1538 C   0  0  0  0  0  0  0  0  0  0  0  0
    2.2528  -14.8206   22.8712 N   0  0  0  0  0  0  0  0  0  0  0  0
    9.3847  -10.9662   23.5453 H   0  0  0  0  0  0  0  0  0  0  0  0
    8.7902  -12.3851   24.4212 H   0  0  0  0  0  0  0  0  0  0  0  0
    9.7042  -11.1396   25.2807 H   0  0  0  0  0  0  0  0  0  0  0  0
    7.2854  -11.0101   25.7626 H   0  0  0  0  0  0  0  0  0  0  0  0
    6.9191   -8.5696   25.2036 H   0  0  0  0  0  0  0  0  0  0  0  0
    8.3909   -8.9849   26.0828 H   0  0  0  0  0  0  0  0  0  0  0  0
    9.6702   -8.1964   24.3543 H   0  0  0  0  0  0  0  0  0  0  0  0
   11.4009   -7.8840   23.0978 H   0  0  0  0  0  0  0  0  0  0  0  0
   12.5390   -5.7382   21.8291 H   0  0  0  0  0  0  0  0  0  0  0  0
   10.5804   -4.4750   20.8135 H   0  0  0  0  0  0  0  0  0  0  0  0
    6.0634   -9.8984   23.4549 H   0  0  0  0  0  0  0  0  0  0  0  0
    7.0507  -11.1868   22.8136 H   0  0  0  0  0  0  0  0  0  0  0  0
    5.6183  -12.3124   25.0771 H   0  0  0  0  0  0  0  0  0  0  0  0
    0.8453  -13.8086   25.1116 H   0  0  0  0  0  0  0  0  0  0  0  0
   -1.1291  -14.6792   23.3411 H   0  0  0  0  0  0  0  0  0  0  0  0
   -0.3258  -17.1661   21.5545 H   0  0  0  0  0  0  0  0  0  0  0  0
    0.3614  -17.9145   19.5243 H   0  0  0  0  0  0  0  0  0  0  0  0
    0.7393  -16.2548   18.8293 H   0  0  0  0  0  0  0  0  0  0  0  0
   -1.6508  -17.9984   18.7821 H   0  0  0  0  0  0  0  0  0  0  0  0
   -0.7321  -17.2739   17.4555 H   0  0  0  0  0  0  0  0  0  0  0  0
   -2.8628  -15.9555   18.2291 H   0  0  0  0  0  0  0  0  0  0  0  0
   -1.3647  -15.0243   18.1551 H   0  0  0  0  0  0  0  0  0  0  0  0
   -2.6114  -16.5766   20.3763 H   0  0  0  0  0  0  0  0  0  0  0  0
   -2.1871  -14.8238   20.4527 H   0  0  0  0  0  0  0  0  0  0  0  0
  1  2  1  0
  2  3  1  0
  3  4  1  0
  4  5  1  0
  5  6  2  0
  5  7  1  0
  7  8  1  0
  8  9  2  0
  9 10  1  0
 10 11  1  0
  2 12  1  0
 12 13  1  0
 13 14  1  0
 14 15  2  0
 14 16  1  0
 16 17  1  0
 17 18  2  0
 18 19  1  0
 19 20  1  0
 20 21  1  0
 21 22  1  0
 22 23  1  0
 23 24  1  0
 19 25  1  0
 11  7  2  0
 25 16  2  0
 24 20  1  0
  1 26  1  0
  1 27  1  0
  1 28  1  0
  2 29  1  0
  3 30  1  0
  3 31  1  0
  4 32  1  0
  8 33  1  0
  9 34  1  0
 10 35  1  0
 12 36  1  0
 12 37  1  0
 13 38  1  0
 17 39  1  0
 18 40  1  0
 20 41  1  0
 21 42  1  0
 21 43  1  0
 22 44  1  0
 22 45  1  0
 23 46  1  0
 23 47  1  0
 24 48  1  0
 24 49  1  0
M  END
>  <Energy>  (995) 
646.67978470151445

>  <compound_id>  (995) 
18703

>  <target_id>  (995) 
1

>  <reference_id>  (995) 
123

>  <inspiration_ids>  (995) 
[123, 81]

>  <energy_score>  (995) 
550.616598136929

>  <distance_score>  (995) 
14.613272633713896

>  <path>  (995) 
/opt/xchem-fragalysis-2/maxwin/BulkDock/SCRATCH/511024/C18703-P123/C18703-P123.minimised.mol

>  <scratch_subdir>  (995) 
/opt/xchem-fragalysis-2/maxwin/BulkDock/SCRATCH/511024/C18703-P123

>  <fragmenstein_runtime>  (995) 
56.1458957195282

>  <fragmenstein_outcome>  (995) 
too moved

>  <fragmenstein_mode>  (995) 
expansion

>  <fragmenstein_error>  (995) 


$$$$
C18703-P81
     RDKit          3D

 49 51  0  0  0  0  0  0  0  0999 V2000
   -2.3310  -14.6894   25.4877 C   0  0  0  0  0  0  0  0  0  0  0  0
   -1.6981  -15.4245   24.3480 C   0  0  0  0  0  0  0  0  0  0  0  0
   -0.3367  -14.0175   23.4453 C   0  0  0  0  0  0  0  0  0  0  0  0
    0.8301  -12.3285   23.0091 N   0  0  0  0  0  0  0  0  0  0  0  0
    2.6088  -12.0302   23.1933 C   0  0  0  0  0  0  0  0  0  0  0  0
    3.2872  -12.8388   23.7069 O   0  0  0  0  0  0  0  0  0  0  0  0
    3.7206  -10.5703   22.5108 C   0  0  0  0  0  0  0  0  0  0  0  0
    5.2338  -10.2550   22.6096 C   0  0  0  0  0  0  0  0  0  0  0  0
    5.5768   -9.1735   21.8327 C   0  0  0  0  0  0  0  0  0  0  0  0
    4.3970   -8.7513   21.3571 N   0  0  0  0  0  0  0  0  0  0  0  0
    3.3507   -9.3584   21.9083 N   0  0  0  0  0  0  0  0  0  0  0  0
   -2.0989  -17.3776   25.2200 C   0  0  0  0  0  0  0  0  0  0  0  0
   -2.8165  -19.1792   25.4134 N   0  0  0  0  0  0  0  0  0  0  0  0
   -4.5006  -19.9393   24.8313 C   0  0  0  0  0  0  0  0  0  0  0  0
   -5.2606  -19.3094   24.1520 O   0  0  0  0  0  0  0  0  0  0  0  0
   -5.1682  -21.2469   25.2071 C   0  0  0  0  0  0  0  0  0  0  0  0
   -6.2385  -21.2925   26.2002 C   0  0  0  0  0  0  0  0  0  0  0  0
   -7.0625  -22.3709   26.0118 C   0  0  0  0  0  0  0  0  0  0  0  0
   -6.7043  -22.7861   24.7773 N   0  0  0  0  0  0  0  0  0  0  0  0
   -7.2898  -23.8545   23.9846 C   0  0  0  0  0  0  0  0  0  0  0  0
   -6.9896  -25.2419   24.5779 C   0  0  0  0  0  0  0  0  0  0  0  0
   -8.3047  -26.0054   24.4988 C   0  0  0  0  0  0  0  0  0  0  0  0
   -9.3567  -24.9259   24.6841 C   0  0  0  0  0  0  0  0  0  0  0  0
   -8.8197  -23.7675   23.8536 C   0  0  0  0  0  0  0  0  0  0  0  0
   -5.7973  -21.9662   24.2076 N   0  0  0  0  0  0  0  0  0  0  0  0
   -2.4226  -13.6080   25.4058 H   0  0  0  0  0  0  0  0  0  0  0  0
   -3.1872  -15.2638   25.2063 H   0  0  0  0  0  0  0  0  0  0  0  0
   -2.1683  -14.9774   26.5355 H   0  0  0  0  0  0  0  0  0  0  0  0
   -2.5985  -15.2897   23.7392 H   0  0  0  0  0  0  0  0  0  0  0  0
   -0.8459  -13.7241   24.3413 H   0  0  0  0  0  0  0  0  0  0  0  0
    0.5412  -14.3072   23.9768 H   0  0  0  0  0  0  0  0  0  0  0  0
    0.3992  -11.4897   22.6227 H   0  0  0  0  0  0  0  0  0  0  0  0
    5.9689  -10.7608   23.2236 H   0  0  0  0  0  0  0  0  0  0  0  0
    6.5163   -8.6875   21.6179 H   0  0  0  0  0  0  0  0  0  0  0  0
    4.2028   -7.9808   20.7277 H   0  0  0  0  0  0  0  0  0  0  0  0
   -2.6231  -17.0396   26.1345 H   0  0  0  0  0  0  0  0  0  0  0  0
   -1.1688  -17.7868   25.7061 H   0  0  0  0  0  0  0  0  0  0  0  0
   -2.3642  -19.8134   26.0329 H   0  0  0  0  0  0  0  0  0  0  0  0
   -6.5271  -20.4606   26.7941 H   0  0  0  0  0  0  0  0  0  0  0  0
   -7.9529  -22.7187   26.5137 H   0  0  0  0  0  0  0  0  0  0  0  0
   -6.8469  -23.7811   22.9825 H   0  0  0  0  0  0  0  0  0  0  0  0
   -6.1969  -25.7545   24.0226 H   0  0  0  0  0  0  0  0  0  0  0  0
   -6.6619  -25.1784   25.6228 H   0  0  0  0  0  0  0  0  0  0  0  0
   -8.3741  -26.7906   25.2572 H   0  0  0  0  0  0  0  0  0  0  0  0
   -8.4104  -26.4722   23.5124 H   0  0  0  0  0  0  0  0  0  0  0  0
   -9.4263  -24.6395   25.7398 H   0  0  0  0  0  0  0  0  0  0  0  0
  -10.3474  -25.2490   24.3517 H   0  0  0  0  0  0  0  0  0  0  0  0
   -9.0988  -23.9224   22.8036 H   0  0  0  0  0  0  0  0  0  0  0  0
   -9.2438  -22.8077   24.1648 H   0  0  0  0  0  0  0  0  0  0  0  0
  1  2  1  0
  2  3  1  0
  3  4  1  0
  4  5  1  0
  5  6  2  0
  5  7  1  0
  7  8  1  0
  8  9  2  0
  9 10  1  0
 10 11  1  0
  2 12  1  0
 12 13  1  0
 13 14  1  0
 14 15  2  0
 14 16  1  0
 16 17  1  0
 17 18  2  0
 18 19  1  0
 19 20  1  0
 20 21  1  0
 21 22  1  0
 22 23  1  0
 23 24  1  0
 19 25  1  0
 11  7  2  0
 25 16  2  0
 24 20  1  0
  1 26  1  0
  1 27  1  0
  1 28  1  0
  2 29  1  0
  3 30  1  0
  3 31  1  0
  4 32  1  0
  8 33  1  0
  9 34  1  0
 10 35  1  0
 12 36  1  0
 12 37  1  0
 13 38  1  0
 17 39  1  0
 18 40  1  0
 20 41  1  0
 21 42  1  0
 21 43  1  0
 22 44  1  0
 22 45  1  0
 23 46  1  0
 23 47  1  0
 24 48  1  0
 24 49  1  0
M  END
>  <Energy>  (996) 
973.7978070366147

>  <compound_id>  (996) 
18703

>  <target_id>  (996) 
1

>  <reference_id>  (996) 
81

>  <inspiration_ids>  (996) 
[123, 81]

>  <energy_score>  (996) 
877.7346204720321

>  <distance_score>  (996) 
11.654515344028018

>  <path>  (996) 
/opt/xchem-fragalysis-2/maxwin/BulkDock/SCRATCH/511024/C18703-P81/C18703-P81.minimised.mol

>  <scratch_subdir>  (996) 
/opt/xchem-fragalysis-2/maxwin/BulkDock/SCRATCH/511024/C18703-P81

>  <fragmenstein_runtime>  (996) 
61.404133319854736

>  <fragmenstein_outcome>  (996) 
too moved

>  <fragmenstein_mode>  (996) 
expansion

>  <fragmenstein_error>  (996) 


$$$$
C28372-P123
     RDKit          3D

 47 49  0  0  0  0  0  0  0  0999 V2000
    0.0160  -16.3621   20.1315 C   0  0  0  0  0  0  0  0  0  0  0  0
   -0.8460  -15.2116   18.9683 N   0  0  0  0  0  0  0  0  0  0  0  0
   -2.2644  -16.2664   19.2480 C   0  0  0  0  0  0  0  0  0  0  0  0
   -3.4472  -17.3961   18.5268 C   0  0  0  0  0  0  0  0  0  0  0  0
   -4.3018  -18.3131   19.3006 N   0  0  0  0  0  0  0  0  0  0  0  0
   -5.7451  -18.4701   19.3336 C   0  0  0  0  0  0  0  0  0  0  0  0
   -6.6103  -17.8392   18.7988 O   0  0  0  0  0  0  0  0  0  0  0  0
   -6.2074  -19.6028   20.2075 C   0  0  0  0  0  0  0  0  0  0  0  0
   -5.5980  -20.8202   20.6179 C   0  0  0  0  0  0  0  0  0  0  0  0
   -6.3434  -21.5519   21.4557 N   0  0  0  0  0  0  0  0  0  0  0  0
   -7.5118  -20.8969   21.4761 N   0  0  0  0  0  0  0  0  0  0  0  0
   -7.4593  -19.7034   20.8112 C   0  0  0  0  0  0  0  0  0  0  0  0
    0.5180  -13.9535   17.9764 C   0  0  0  0  0  0  0  0  0  0  0  0
    2.4614  -13.9362   18.1373 C   0  0  0  0  0  0  0  0  0  0  0  0
    3.2859  -12.3624   18.0944 C   0  0  0  0  0  0  0  0  0  0  0  0
    3.2123  -11.3295   16.9904 C   0  0  0  0  0  0  0  0  0  0  0  0
    4.3556  -11.8363   17.4243 N   0  0  0  0  0  0  0  0  0  0  0  0
    5.6505  -10.7397   17.3140 C   0  0  0  0  0  0  0  0  0  0  0  0
    5.7446   -9.4091   18.1333 C   0  0  0  0  0  0  0  0  0  0  0  0
    6.7743   -9.7471   19.2387 C   0  0  0  0  0  0  0  0  0  0  0  0
    7.7991  -10.6613   18.6378 C   0  0  0  0  0  0  0  0  0  0  0  0
    7.2813  -10.8703   17.2455 C   0  0  0  0  0  0  0  0  0  0  0  0
    3.9282  -13.5481   18.1392 N   0  0  0  0  0  0  0  0  0  0  0  0
   -0.5080  -16.3785   21.0708 H   0  0  0  0  0  0  0  0  0  0  0  0
    0.0325  -17.4145   19.8146 H   0  0  0  0  0  0  0  0  0  0  0  0
    0.9879  -15.9776   20.3081 H   0  0  0  0  0  0  0  0  0  0  0  0
   -2.7440  -15.7752   20.0905 H   0  0  0  0  0  0  0  0  0  0  0  0
   -1.8388  -17.1149   19.7847 H   0  0  0  0  0  0  0  0  0  0  0  0
   -4.0714  -16.8957   17.7805 H   0  0  0  0  0  0  0  0  0  0  0  0
   -2.8625  -18.1974   18.0521 H   0  0  0  0  0  0  0  0  0  0  0  0
   -3.8765  -19.0752   19.8024 H   0  0  0  0  0  0  0  0  0  0  0  0
   -4.6189  -21.1979   20.3515 H   0  0  0  0  0  0  0  0  0  0  0  0
   -8.3034  -21.3341   21.9397 H   0  0  0  0  0  0  0  0  0  0  0  0
   -8.3167  -19.0465   20.7708 H   0  0  0  0  0  0  0  0  0  0  0  0
    0.7503  -14.1505   16.8897 H   0  0  0  0  0  0  0  0  0  0  0  0
   -0.1366  -13.0922   17.8647 H   0  0  0  0  0  0  0  0  0  0  0  0
    3.9860  -12.3687   19.2531 H   0  0  0  0  0  0  0  0  0  0  0  0
    3.2658  -10.2599   16.8513 H   0  0  0  0  0  0  0  0  0  0  0  0
    5.3864  -10.4138   16.2884 H   0  0  0  0  0  0  0  0  0  0  0  0
    6.1945   -8.6380   17.4892 H   0  0  0  0  0  0  0  0  0  0  0  0
    4.8240   -8.9163   18.4436 H   0  0  0  0  0  0  0  0  0  0  0  0
    6.3571  -10.3675   20.0339 H   0  0  0  0  0  0  0  0  0  0  0  0
    7.2138   -8.8513   19.6840 H   0  0  0  0  0  0  0  0  0  0  0  0
    7.8486  -11.5923   19.2093 H   0  0  0  0  0  0  0  0  0  0  0  0
    8.7979  -10.2378   18.6530 H   0  0  0  0  0  0  0  0  0  0  0  0
    7.6138  -10.0184   16.6303 H   0  0  0  0  0  0  0  0  0  0  0  0
    7.8297  -11.6683   16.7494 H   0  0  0  0  0  0  0  0  0  0  0  0
  1  2  1  0
  2  3  1  0
  3  4  1  0
  4  5  1  0
  5  6  1  0
  6  7  2  0
  6  8  1  0
  8  9  1  0
  9 10  2  0
 10 11  1  0
 11 12  1  0
  2 13  1  0
 13 14  1  0
 14 15  1  0
 15 16  2  0
 16 17  1  0
 17 18  1  0
 18 19  1  0
 19 20  1  0
 20 21  1  0
 21 22  1  0
 17 23  1  0
 12  8  2  0
 23 14  2  0
 22 18  1  0
  1 24  1  0
  1 25  1  0
  1 26  1  0
  3 27  1  0
  3 28  1  0
  4 29  1  0
  4 30  1  0
  5 31  1  0
  9 32  1  0
 11 33  1  0
 12 34  1  0
 13 35  1  0
 13 36  1  0
 15 37  1  0
 16 38  1  0
 18 39  1  0
 19 40  1  0
 19 41  1  0
 20 42  1  0
 20 43  1  0
 21 44  1  0
 21 45  1  0
 22 46  1  0
 22 47  1  0
M  END
>  <Energy>  (997) 
992.78812033540419

>  <compound_id>  (997) 
28372

>  <target_id>  (997) 
1

>  <reference_id>  (997) 
123

>  <inspiration_ids>  (997) 
[123, 81]

>  <energy_score>  (997) 
912.2203359925225

>  <distance_score>  (997) 
14.19746765562519

>  <path>  (997) 
/opt/xchem-fragalysis-2/maxwin/BulkDock/SCRATCH/511024/C28372-P123/C28372-P123.minimised.mol

>  <scratch_subdir>  (997) 
/opt/xchem-fragalysis-2/maxwin/BulkDock/SCRATCH/511024/C28372-P123

>  <fragmenstein_runtime>  (997) 
32.631019592285156

>  <fragmenstein_outcome>  (997) 
too moved

>  <fragmenstein_mode>  (997) 
expansion

>  <fragmenstein_error>  (997) 


$$$$
C28372-P81
     RDKit          3D

 47 49  0  0  0  0  0  0  0  0999 V2000
   -1.2750  -17.4156   19.9632 C   0  0  0  0  0  0  0  0  0  0  0  0
    0.1121  -17.6250   20.6615 N   0  0  0  0  0  0  0  0  0  0  0  0
   -0.1104  -18.7340   22.0606 C   0  0  0  0  0  0  0  0  0  0  0  0
    0.8679  -20.2470   22.8818 C   0  0  0  0  0  0  0  0  0  0  0  0
    0.0284  -21.3608   23.3821 N   0  0  0  0  0  0  0  0  0  0  0  0
    0.3122  -22.7413   23.5571 C   0  0  0  0  0  0  0  0  0  0  0  0
    1.2771  -23.3830   23.2679 O   0  0  0  0  0  0  0  0  0  0  0  0
   -0.8047  -23.3800   24.3252 C   0  0  0  0  0  0  0  0  0  0  0  0
   -2.1581  -22.9893   24.5746 C   0  0  0  0  0  0  0  0  0  0  0  0
   -2.7261  -23.6424   25.5968 N   0  0  0  0  0  0  0  0  0  0  0  0
   -1.7754  -24.5178   25.9607 N   0  0  0  0  0  0  0  0  0  0  0  0
   -0.6431  -24.4355   25.2096 C   0  0  0  0  0  0  0  0  0  0  0  0
    0.9013  -15.9929   20.3280 C   0  0  0  0  0  0  0  0  0  0  0  0
    2.3506  -14.6285   19.8187 C   0  0  0  0  0  0  0  0  0  0  0  0
    3.3947  -13.2894   20.6864 C   0  0  0  0  0  0  0  0  0  0  0  0
    4.4365  -12.8218   19.7708 C   0  0  0  0  0  0  0  0  0  0  0  0
    3.8068  -12.8161   18.4233 N   0  0  0  0  0  0  0  0  0  0  0  0
    4.2230  -11.4782   17.2233 C   0  0  0  0  0  0  0  0  0  0  0  0
    3.3281  -10.2838   16.7499 C   0  0  0  0  0  0  0  0  0  0  0  0
    4.2285   -9.1108   16.3444 C   0  0  0  0  0  0  0  0  0  0  0  0
    5.2831   -9.0546   17.4165 C   0  0  0  0  0  0  0  0  0  0  0  0
    5.6765  -10.5269   17.5573 C   0  0  0  0  0  0  0  0  0  0  0  0
    2.7977  -14.2344   18.3796 N   0  0  0  0  0  0  0  0  0  0  0  0
   -1.6010  -16.3915   19.7381 H   0  0  0  0  0  0  0  0  0  0  0  0
   -2.1347  -17.6465   20.5380 H   0  0  0  0  0  0  0  0  0  0  0  0
   -1.3262  -18.0063   19.0438 H   0  0  0  0  0  0  0  0  0  0  0  0
   -1.1155  -18.4405   21.9513 H   0  0  0  0  0  0  0  0  0  0  0  0
   -0.9629  -19.4499   22.3174 H   0  0  0  0  0  0  0  0  0  0  0  0
    1.6022  -20.6655   22.1928 H   0  0  0  0  0  0  0  0  0  0  0  0
    1.3840  -19.9577   23.8122 H   0  0  0  0  0  0  0  0  0  0  0  0
   -0.8529  -21.1481   23.8235 H   0  0  0  0  0  0  0  0  0  0  0  0
   -2.7256  -22.2038   24.0925 H   0  0  0  0  0  0  0  0  0  0  0  0
   -1.9520  -25.1357   26.7448 H   0  0  0  0  0  0  0  0  0  0  0  0
    0.2203  -25.0519   25.4193 H   0  0  0  0  0  0  0  0  0  0  0  0
   -0.0072  -15.8343   19.8323 H   0  0  0  0  0  0  0  0  0  0  0  0
    0.9353  -16.4305   19.3650 H   0  0  0  0  0  0  0  0  0  0  0  0
    3.2730  -13.0165   21.7158 H   0  0  0  0  0  0  0  0  0  0  0  0
    5.3330  -12.2462   19.9311 H   0  0  0  0  0  0  0  0  0  0  0  0
    4.3733  -11.9162   16.2623 H   0  0  0  0  0  0  0  0  0  0  0  0
    2.8654  -10.5971   15.8192 H   0  0  0  0  0  0  0  0  0  0  0  0
    2.6407   -9.8788   17.4871 H   0  0  0  0  0  0  0  0  0  0  0  0
    4.6856   -9.3050   15.3660 H   0  0  0  0  0  0  0  0  0  0  0  0
    3.6647   -8.1760   16.2681 H   0  0  0  0  0  0  0  0  0  0  0  0
    4.8807   -8.6340   18.3398 H   0  0  0  0  0  0  0  0  0  0  0  0
    6.1302   -8.4303   17.1194 H   0  0  0  0  0  0  0  0  0  0  0  0
    6.4417  -10.6014   16.7801 H   0  0  0  0  0  0  0  0  0  0  0  0
    6.1735  -10.7742   18.5005 H   0  0  0  0  0  0  0  0  0  0  0  0
  1  2  1  0
  2  3  1  0
  3  4  1  0
  4  5  1  0
  5  6  1  0
  6  7  2  0
  6  8  1  0
  8  9  1  0
  9 10  2  0
 10 11  1  0
 11 12  1  0
  2 13  1  0
 13 14  1  0
 14 15  1  0
 15 16  2  0
 16 17  1  0
 17 18  1  0
 18 19  1  0
 19 20  1  0
 20 21  1  0
 21 22  1  0
 17 23  1  0
 12  8  2  0
 23 14  2  0
 22 18  1  0
  1 24  1  0
  1 25  1  0
  1 26  1  0
  3 27  1  0
  3 28  1  0
  4 29  1  0
  4 30  1  0
  5 31  1  0
  9 32  1  0
 11 33  1  0
 12 34  1  0
 13 35  1  0
 13 36  1  0
 15 37  1  0
 16 38  1  0
 18 39  1  0
 19 40  1  0
 19 41  1  0
 20 42  1  0
 20 43  1  0
 21 44  1  0
 21 45  1  0
 22 46  1  0
 22 47  1  0
M  END
>  <Energy>  (998) 
726.3694458687462

>  <compound_id>  (998) 
28372

>  <target_id>  (998) 
1

>  <reference_id>  (998) 
81

>  <inspiration_ids>  (998) 
[123, 81]

>  <energy_score>  (998) 
645.8016615258499

>  <distance_score>  (998) 
14.482956120286309

>  <path>  (998) 
/opt/xchem-fragalysis-2/maxwin/BulkDock/SCRATCH/511024/C28372-P81/C28372-P81.minimised.mol

>  <scratch_subdir>  (998) 
/opt/xchem-fragalysis-2/maxwin/BulkDock/SCRATCH/511024/C28372-P81

>  <fragmenstein_runtime>  (998) 
49.49739074707031

>  <fragmenstein_outcome>  (998) 
too moved

>  <fragmenstein_mode>  (998) 
expansion

>  <fragmenstein_error>  (998) 


$$$$
C18704-P123
     RDKit          3D

 47 49  0  0  0  0  0  0  0  0999 V2000
   -5.9270  -17.1690   18.9840 C   0  0  0  0  0  0  0  0  0  0  0  0
   -5.0384  -18.1761   18.4460 N   0  0  0  0  0  0  0  0  0  0  0  0
   -3.6173  -17.6711   18.2427 C   0  0  0  0  0  0  0  0  0  0  0  0
   -3.4587  -16.3023   17.4679 C   0  0  0  0  0  0  0  0  0  0  0  0
   -2.1419  -15.7335   17.0927 N   0  0  0  0  0  0  0  0  0  0  0  0
   -1.7966  -14.6583   16.1763 C   0  0  0  0  0  0  0  0  0  0  0  0
   -2.4834  -14.0156   15.4350 O   0  0  0  0  0  0  0  0  0  0  0  0
   -0.3255  -14.2395   16.1817 C   0  0  0  0  0  0  0  0  0  0  0  0
    0.2362  -13.1563   15.4056 C   0  0  0  0  0  0  0  0  0  0  0  0
    1.5829  -13.1238   15.6787 C   0  0  0  0  0  0  0  0  0  0  0  0
    1.7851  -14.1309   16.5716 N   0  0  0  0  0  0  0  0  0  0  0  0
    0.6559  -14.7983   16.9189 N   0  0  0  0  0  0  0  0  0  0  0  0
   -5.1018  -19.5051   19.1646 C   0  0  0  0  0  0  0  0  0  0  0  0
   -6.3191  -19.9204   20.0679 C   0  0  0  0  0  0  0  0  0  0  0  0
   -7.0353  -19.2110   21.0839 C   0  0  0  0  0  0  0  0  0  0  0  0
   -7.8913  -20.1153   21.6735 C   0  0  0  0  0  0  0  0  0  0  0  0
   -7.6602  -21.2987   21.0467 N   0  0  0  0  0  0  0  0  0  0  0  0
   -8.2778  -22.5869   21.2803 C   0  0  0  0  0  0  0  0  0  0  0  0
   -7.3861  -23.5489   22.0769 C   0  0  0  0  0  0  0  0  0  0  0  0
   -8.3333  -24.4327   22.8907 C   0  0  0  0  0  0  0  0  0  0  0  0
   -9.7414  -24.0514   22.4534 C   0  0  0  0  0  0  0  0  0  0  0  0
   -9.6077  -22.5949   22.0383 C   0  0  0  0  0  0  0  0  0  0  0  0
   -6.7295  -21.2079   20.0674 N   0  0  0  0  0  0  0  0  0  0  0  0
   -6.9673  -17.5087   18.9766 H   0  0  0  0  0  0  0  0  0  0  0  0
   -5.9403  -16.2683   18.3632 H   0  0  0  0  0  0  0  0  0  0  0  0
   -5.6366  -16.8887   19.9970 H   0  0  0  0  0  0  0  0  0  0  0  0
   -3.0658  -18.4362   17.6838 H   0  0  0  0  0  0  0  0  0  0  0  0
   -3.1274  -17.5631   19.2179 H   0  0  0  0  0  0  0  0  0  0  0  0
   -4.0313  -16.3596   16.5343 H   0  0  0  0  0  0  0  0  0  0  0  0
   -3.9209  -15.5085   18.0647 H   0  0  0  0  0  0  0  0  0  0  0  0
   -1.3150  -15.9922   17.6271 H   0  0  0  0  0  0  0  0  0  0  0  0
   -0.3103  -12.5145   14.7265 H   0  0  0  0  0  0  0  0  0  0  0  0
    2.3894  -12.5027   15.3160 H   0  0  0  0  0  0  0  0  0  0  0  0
    2.6610  -14.4283   16.9933 H   0  0  0  0  0  0  0  0  0  0  0  0
   -4.2007  -19.6412   19.7668 H   0  0  0  0  0  0  0  0  0  0  0  0
   -5.0312  -20.2635   18.3730 H   0  0  0  0  0  0  0  0  0  0  0  0
   -6.9018  -18.1872   21.3952 H   0  0  0  0  0  0  0  0  0  0  0  0
   -8.5944  -20.0040   22.4842 H   0  0  0  0  0  0  0  0  0  0  0  0
   -8.4594  -23.0196   20.2856 H   0  0  0  0  0  0  0  0  0  0  0  0
   -6.7045  -23.0173   22.7488 H   0  0  0  0  0  0  0  0  0  0  0  0
   -6.7667  -24.1502   21.4019 H   0  0  0  0  0  0  0  0  0  0  0  0
   -8.2021  -24.2247   23.9592 H   0  0  0  0  0  0  0  0  0  0  0  0
   -8.1355  -25.4980   22.7366 H   0  0  0  0  0  0  0  0  0  0  0  0
  -10.0474  -24.6624   21.5959 H   0  0  0  0  0  0  0  0  0  0  0  0
  -10.4762  -24.1930   23.2512 H   0  0  0  0  0  0  0  0  0  0  0  0
  -10.4432  -22.2630   21.4142 H   0  0  0  0  0  0  0  0  0  0  0  0
   -9.5794  -21.9634   22.9329 H   0  0  0  0  0  0  0  0  0  0  0  0
  1  2  1  0
  2  3  1  0
  3  4  1  0
  4  5  1  0
  5  6  1  0
  6  7  2  0
  6  8  1  0
  8  9  1  0
  9 10  2  0
 10 11  1  0
 11 12  1  0
  2 13  1  0
 13 14  1  0
 14 15  1  0
 15 16  2  0
 16 17  1  0
 17 18  1  0
 18 19  1  0
 19 20  1  0
 20 21  1  0
 21 22  1  0
 17 23  1  0
 12  8  2  0
 23 14  2  0
 22 18  1  0
  1 24  1  0
  1 25  1  0
  1 26  1  0
  3 27  1  0
  3 28  1  0
  4 29  1  0
  4 30  1  0
  5 31  1  0
  9 32  1  0
 10 33  1  0
 11 34  1  0
 13 35  1  0
 13 36  1  0
 15 37  1  0
 16 38  1  0
 18 39  1  0
 19 40  1  0
 19 41  1  0
 20 42  1  0
 20 43  1  0
 21 44  1  0
 21 45  1  0
 22 46  1  0
 22 47  1  0
M  END
>  <Energy>  (999) 
107.48584786048366

>  <compound_id>  (999) 
18704

>  <target_id>  (999) 
1

>  <reference_id>  (999) 
123

>  <inspiration_ids>  (999) 
[123, 81]

>  <energy_score>  (999) 
-21.318680858397556

>  <distance_score>  (999) 
15.33613162276356

>  <path>  (999) 
/opt/xchem-fragalysis-2/maxwin/BulkDock/SCRATCH/511024/C18704-P123/C18704-P123.minimised.mol

>  <scratch_subdir>  (999) 
/opt/xchem-fragalysis-2/maxwin/BulkDock/SCRATCH/511024/C18704-P123

>  <fragmenstein_runtime>  (999) 
45.80492806434631

>  <fragmenstein_outcome>  (999) 
too moved

>  <fragmenstein_mode>  (999) 
expansion

>  <fragmenstein_error>  (999) 


$$$$
C18704-P81
     RDKit          3D

 47 49  0  0  0  0  0  0  0  0999 V2000
   -3.2677  -15.7208   29.6782 C   0  0  0  0  0  0  0  0  0  0  0  0
   -4.0345  -16.5524   28.6937 N   0  0  0  0  0  0  0  0  0  0  0  0
   -2.6866  -16.3211   27.2149 C   0  0  0  0  0  0  0  0  0  0  0  0
   -2.3734  -15.0403   25.5715 C   0  0  0  0  0  0  0  0  0  0  0  0
   -0.8816  -14.3017   24.5614 N   0  0  0  0  0  0  0  0  0  0  0  0
    0.7832  -13.6931   25.1938 C   0  0  0  0  0  0  0  0  0  0  0  0
    1.1630  -13.5822   26.3349 O   0  0  0  0  0  0  0  0  0  0  0  0
    1.9280  -13.1329   24.1702 C   0  0  0  0  0  0  0  0  0  0  0  0
    2.1227  -11.9069   24.0180 C   0  0  0  0  0  0  0  0  0  0  0  0
    3.0082  -11.6674   23.0754 C   0  0  0  0  0  0  0  0  0  0  0  0
    3.1257  -12.8618   22.6628 N   0  0  0  0  0  0  0  0  0  0  0  0
    2.9786  -13.7295   23.5858 N   0  0  0  0  0  0  0  0  0  0  0  0
   -5.7124  -17.5247   29.4739 C   0  0  0  0  0  0  0  0  0  0  0  0
   -6.7746  -19.2351   30.2296 C   0  0  0  0  0  0  0  0  0  0  0  0
   -8.3271  -19.4185   28.8376 C   0  0  0  0  0  0  0  0  0  0  0  0
   -9.7365  -20.6523   29.6471 C   0  0  0  0  0  0  0  0  0  0  0  0
   -9.0380  -21.2145   31.3783 N   0  0  0  0  0  0  0  0  0  0  0  0
  -10.3430  -22.4277   31.5315 C   0  0  0  0  0  0  0  0  0  0  0  0
  -11.7492  -22.0477   32.1039 C   0  0  0  0  0  0  0  0  0  0  0  0
  -12.2975  -23.3414   32.7040 C   0  0  0  0  0  0  0  0  0  0  0  0
  -11.5006  -24.4810   32.0757 C   0  0  0  0  0  0  0  0  0  0  0  0
  -10.1005  -23.9417   31.7765 C   0  0  0  0  0  0  0  0  0  0  0  0
   -6.9558  -21.0781   31.0322 N   0  0  0  0  0  0  0  0  0  0  0  0
   -3.7698  -14.8142   29.8874 H   0  0  0  0  0  0  0  0  0  0  0  0
   -2.4402  -15.1337   29.2355 H   0  0  0  0  0  0  0  0  0  0  0  0
   -2.8323  -16.1963   30.5549 H   0  0  0  0  0  0  0  0  0  0  0  0
   -2.4057  -17.3263   26.9045 H   0  0  0  0  0  0  0  0  0  0  0  0
   -1.8842  -15.7399   27.6744 H   0  0  0  0  0  0  0  0  0  0  0  0
   -2.6890  -14.0946   25.9622 H   0  0  0  0  0  0  0  0  0  0  0  0
   -2.9354  -15.4915   24.7521 H   0  0  0  0  0  0  0  0  0  0  0  0
   -0.8680  -14.3572   23.5603 H   0  0  0  0  0  0  0  0  0  0  0  0
    1.6215  -11.5056   24.8431 H   0  0  0  0  0  0  0  0  0  0  0  0
    3.5088  -10.7733   22.6781 H   0  0  0  0  0  0  0  0  0  0  0  0
    3.1213  -13.2360   21.7035 H   0  0  0  0  0  0  0  0  0  0  0  0
   -6.5578  -17.0579   28.9365 H   0  0  0  0  0  0  0  0  0  0  0  0
   -5.8408  -16.8946   30.3756 H   0  0  0  0  0  0  0  0  0  0  0  0
   -8.4875  -18.7730   27.9732 H   0  0  0  0  0  0  0  0  0  0  0  0
  -10.4966  -21.3162   29.2025 H   0  0  0  0  0  0  0  0  0  0  0  0
  -10.7461  -22.4173   30.5267 H   0  0  0  0  0  0  0  0  0  0  0  0
  -11.8051  -21.1953   32.7820 H   0  0  0  0  0  0  0  0  0  0  0  0
  -12.4108  -21.8201   31.2661 H   0  0  0  0  0  0  0  0  0  0  0  0
  -12.1911  -23.3469   33.7860 H   0  0  0  0  0  0  0  0  0  0  0  0
  -13.3698  -23.4371   32.5231 H   0  0  0  0  0  0  0  0  0  0  0  0
  -11.4697  -25.3661   32.7176 H   0  0  0  0  0  0  0  0  0  0  0  0
  -11.9704  -24.7743   31.1304 H   0  0  0  0  0  0  0  0  0  0  0  0
   -9.3719  -24.1273   32.5526 H   0  0  0  0  0  0  0  0  0  0  0  0
   -9.7233  -24.4857   30.9036 H   0  0  0  0  0  0  0  0  0  0  0  0
  1  2  1  0
  2  3  1  0
  3  4  1  0
  4  5  1  0
  5  6  1  0
  6  7  2  0
  6  8  1  0
  8  9  1  0
  9 10  2  0
 10 11  1  0
 11 12  1  0
  2 13  1  0
 13 14  1  0
 14 15  1  0
 15 16  2  0
 16 17  1  0
 17 18  1  0
 18 19  1  0
 19 20  1  0
 20 21  1  0
 21 22  1  0
 17 23  1  0
 12  8  2  0
 23 14  2  0
 22 18  1  0
  1 24  1  0
  1 25  1  0
  1 26  1  0
  3 27  1  0
  3 28  1  0
  4 29  1  0
  4 30  1  0
  5 31  1  0
  9 32  1  0
 10 33  1  0
 11 34  1  0
 13 35  1  0
 13 36  1  0
 15 37  1  0
 16 38  1  0
 18 39  1  0
 19 40  1  0
 19 41  1  0
 20 42  1  0
 20 43  1  0
 21 44  1  0
 21 45  1  0
 22 46  1  0
 22 47  1  0
M  END
>  <Energy>  (1000) 
1721.9310285939819

>  <compound_id>  (1000) 
18704

>  <target_id>  (1000) 
1

>  <reference_id>  (1000) 
81

>  <inspiration_ids>  (1000) 
[123, 81]

>  <energy_score>  (1000) 
1593.1264998751585

>  <distance_score>  (1000) 
12.918319290781016

>  <path>  (1000) 
/opt/xchem-fragalysis-2/maxwin/BulkDock/SCRATCH/511024/C18704-P81/C18704-P81.minimised.mol

>  <scratch_subdir>  (1000) 
/opt/xchem-fragalysis-2/maxwin/BulkDock/SCRATCH/511024/C18704-P81

>  <fragmenstein_runtime>  (1000) 
35.82087707519531

>  <fragmenstein_outcome>  (1000) 
too moved

>  <fragmenstein_mode>  (1000) 
expansion

>  <fragmenstein_error>  (1000) 


$$$$
C28373-P123
     RDKit          3D

 49 51  0  0  0  0  0  0  0  0999 V2000
   -7.7826  -18.9447   15.8660 C   0  0  0  0  0  0  0  0  0  0  0  0
   -6.4035  -19.1182   16.4971 C   0  0  0  0  0  0  0  0  0  0  0  0
   -5.5756  -17.5947   16.6711 C   0  0  0  0  0  0  0  0  0  0  0  0
   -5.3895  -16.2632   15.3247 N   0  0  0  0  0  0  0  0  0  0  0  0
   -4.8742  -17.3697   16.0531 C   0  0  0  0  0  0  0  0  0  0  0  0
   -4.3940  -15.8946   14.3480 C   0  0  0  0  0  0  0  0  0  0  0  0
   -4.3848  -16.3673   13.2171 O   0  0  0  0  0  0  0  0  0  0  0  0
   -3.4037  -14.8210   14.6700 C   0  0  0  0  0  0  0  0  0  0  0  0
   -2.0768  -14.7171   14.2362 C   0  0  0  0  0  0  0  0  0  0  0  0
   -1.5739  -13.4867   14.6997 C   0  0  0  0  0  0  0  0  0  0  0  0
   -2.5103  -12.7893   15.3383 N   0  0  0  0  0  0  0  0  0  0  0  0
   -3.6291  -13.5655   15.2236 N   0  0  0  0  0  0  0  0  0  0  0  0
   -4.9353  -12.9975   15.5073 C   0  0  0  0  0  0  0  0  0  0  0  0
   -5.8134  -12.8222   14.2601 C   0  0  0  0  0  0  0  0  0  0  0  0
   -6.8381  -11.7441   14.6195 C   0  0  0  0  0  0  0  0  0  0  0  0
   -6.4003  -11.1685   15.9623 C   0  0  0  0  0  0  0  0  0  0  0  0
   -4.9446  -11.5829   16.1015 C   0  0  0  0  0  0  0  0  0  0  0  0
   -6.6402  -19.8253   17.7756 N   0  0  0  0  0  0  0  0  0  0  0  0
   -7.0418  -19.3341   19.0636 C   0  0  0  0  0  0  0  0  0  0  0  0
   -7.2103  -18.2175   19.4531 O   0  0  0  0  0  0  0  0  0  0  0  0
   -7.3863  -20.4297   20.0065 C   0  0  0  0  0  0  0  0  0  0  0  0
   -7.4026  -20.3589   21.4258 C   0  0  0  0  0  0  0  0  0  0  0  0
   -7.8232  -21.4833   22.0120 N   0  0  0  0  0  0  0  0  0  0  0  0
   -8.2070  -22.2522   20.9886 N   0  0  0  0  0  0  0  0  0  0  0  0
   -7.8977  -21.6980   19.7695 C   0  0  0  0  0  0  0  0  0  0  0  0
   -8.4481  -18.3460   16.4976 H   0  0  0  0  0  0  0  0  0  0  0  0
   -7.6983  -18.4488   14.8938 H   0  0  0  0  0  0  0  0  0  0  0  0
   -8.2645  -19.9161   15.7082 H   0  0  0  0  0  0  0  0  0  0  0  0
   -5.7823  -19.7861   15.8881 H   0  0  0  0  0  0  0  0  0  0  0  0
   -6.5802  -17.1054   16.9713 H   0  0  0  0  0  0  0  0  0  0  0  0
   -5.1632  -17.4503   17.8091 H   0  0  0  0  0  0  0  0  0  0  0  0
   -4.0425  -16.6281   16.4824 H   0  0  0  0  0  0  0  0  0  0  0  0
   -3.8237  -17.9034   15.9021 H   0  0  0  0  0  0  0  0  0  0  0  0
   -4.8629  -17.9835   15.0185 H   0  0  0  0  0  0  0  0  0  0  0  0
   -1.5551  -15.4711   13.6636 H   0  0  0  0  0  0  0  0  0  0  0  0
   -0.5800  -13.0737   14.5904 H   0  0  0  0  0  0  0  0  0  0  0  0
   -5.4278  -13.6818   16.2071 H   0  0  0  0  0  0  0  0  0  0  0  0
   -5.2158  -12.4904   13.4016 H   0  0  0  0  0  0  0  0  0  0  0  0
   -6.3078  -13.7540   13.9673 H   0  0  0  0  0  0  0  0  0  0  0  0
   -7.8500  -12.1584   14.6860 H   0  0  0  0  0  0  0  0  0  0  0  0
   -6.8524  -10.9675   13.8466 H   0  0  0  0  0  0  0  0  0  0  0  0
   -6.9945  -11.6143   16.7690 H   0  0  0  0  0  0  0  0  0  0  0  0
   -6.5304  -10.0833   16.0110 H   0  0  0  0  0  0  0  0  0  0  0  0
   -4.3126  -10.8982   15.5222 H   0  0  0  0  0  0  0  0  0  0  0  0
   -4.6063  -11.5518   17.1406 H   0  0  0  0  0  0  0  0  0  0  0  0
   -6.5192  -20.8305   17.8286 H   0  0  0  0  0  0  0  0  0  0  0  0
   -7.1099  -19.5176   22.0421 H   0  0  0  0  0  0  0  0  0  0  0  0
   -8.7075  -23.1218   21.1863 H   0  0  0  0  0  0  0  0  0  0  0  0
   -8.1537  -22.2229   18.8611 H   0  0  0  0  0  0  0  0  0  0  0  0
  1  2  1  0
  2  3  1  0
  3  4  1  0
  4  5  1  0
  4  6  1  0
  6  7  2  0
  6  8  1  0
  8  9  2  0
  9 10  1  0
 10 11  2  0
 11 12  1  0
 12 13  1  0
 13 14  1  0
 14 15  1  0
 15 16  1  0
 16 17  1  0
  2 18  1  0
 18 19  1  0
 19 20  2  0
 19 21  1  0
 21 22  1  0
 22 23  2  0
 23 24  1  0
 24 25  1  0
 12  8  1  0
 17 13  1  0
 25 21  2  0
  1 26  1  0
  1 27  1  0
  1 28  1  0
  2 29  1  0
  3 30  1  0
  3 31  1  0
  5 32  1  0
  5 33  1  0
  5 34  1  0
  9 35  1  0
 10 36  1  0
 13 37  1  0
 14 38  1  0
 14 39  1  0
 15 40  1  0
 15 41  1  0
 16 42  1  0
 16 43  1  0
 17 44  1  0
 17 45  1  0
 18 46  1  0
 22 47  1  0
 24 48  1  0
 25 49  1  0
M  END
>  <Energy>  (1001) 
574.47351742454657

>  <compound_id>  (1001) 
28373

>  <target_id>  (1001) 
1

>  <reference_id>  (1001) 
123

>  <inspiration_ids>  (1001) 
[123, 81]

>  <energy_score>  (1001) 
544.5858833767459

>  <distance_score>  (1001) 
15.911984166178419

>  <path>  (1001) 
/opt/xchem-fragalysis-2/maxwin/BulkDock/SCRATCH/511024/C28373-P123/C28373-P123.minimised.mol

>  <scratch_subdir>  (1001) 
/opt/xchem-fragalysis-2/maxwin/BulkDock/SCRATCH/511024/C28373-P123

>  <fragmenstein_runtime>  (1001) 
58.02225422859192

>  <fragmenstein_outcome>  (1001) 
too moved

>  <fragmenstein_mode>  (1001) 
expansion

>  <fragmenstein_error>  (1001) 


$$$$
C28373-P81
     RDKit          3D

 49 51  0  0  0  0  0  0  0  0999 V2000
   -2.2194  -12.5192   27.2649 C   0  0  0  0  0  0  0  0  0  0  0  0
   -1.1698  -12.9325   28.3021 C   0  0  0  0  0  0  0  0  0  0  0  0
    0.3061  -12.7909   27.7463 C   0  0  0  0  0  0  0  0  0  0  0  0
    0.9139  -11.4412   27.9349 N   0  0  0  0  0  0  0  0  0  0  0  0
    1.5904  -11.1851   29.1885 C   0  0  0  0  0  0  0  0  0  0  0  0
    0.8848  -10.3954   27.0005 C   0  0  0  0  0  0  0  0  0  0  0  0
   -0.0694   -9.6163   27.0630 O   0  0  0  0  0  0  0  0  0  0  0  0
    1.9974  -10.1618   26.0585 C   0  0  0  0  0  0  0  0  0  0  0  0
    2.9914  -10.9908   25.5532 C   0  0  0  0  0  0  0  0  0  0  0  0
    3.7445  -10.2191   24.6407 C   0  0  0  0  0  0  0  0  0  0  0  0
    3.3070   -8.9677   24.5626 N   0  0  0  0  0  0  0  0  0  0  0  0
    2.2695   -8.9327   25.4385 N   0  0  0  0  0  0  0  0  0  0  0  0
    1.5540   -7.6731   25.6285 C   0  0  0  0  0  0  0  0  0  0  0  0
    2.4200   -6.4070   25.4640 C   0  0  0  0  0  0  0  0  0  0  0  0
    2.0389   -5.8450   24.1022 C   0  0  0  0  0  0  0  0  0  0  0  0
    0.5486   -6.1243   24.0261 C   0  0  0  0  0  0  0  0  0  0  0  0
    0.4068   -7.5236   24.6130 C   0  0  0  0  0  0  0  0  0  0  0  0
   -1.6434  -14.2495   28.7856 N   0  0  0  0  0  0  0  0  0  0  0  0
   -2.2937  -14.6252   30.0144 C   0  0  0  0  0  0  0  0  0  0  0  0
   -2.5435  -13.9831   30.9908 O   0  0  0  0  0  0  0  0  0  0  0  0
   -2.8294  -16.0197   30.0244 C   0  0  0  0  0  0  0  0  0  0  0  0
   -3.6135  -16.5875   31.0811 C   0  0  0  0  0  0  0  0  0  0  0  0
   -4.0624  -17.8174   30.8226 N   0  0  0  0  0  0  0  0  0  0  0  0
   -3.6060  -18.0601   29.5879 N   0  0  0  0  0  0  0  0  0  0  0  0
   -2.8395  -17.0356   29.0813 C   0  0  0  0  0  0  0  0  0  0  0  0
   -3.2242  -12.5291   27.6999 H   0  0  0  0  0  0  0  0  0  0  0  0
   -2.2088  -13.1960   26.4060 H   0  0  0  0  0  0  0  0  0  0  0  0
   -2.0323  -11.5041   26.9049 H   0  0  0  0  0  0  0  0  0  0  0  0
   -1.2667  -12.2594   29.1626 H   0  0  0  0  0  0  0  0  0  0  0  0
    0.9594  -13.5199   28.2383 H   0  0  0  0  0  0  0  0  0  0  0  0
    0.3281  -12.9875   26.6809 H   0  0  0  0  0  0  0  0  0  0  0  0
    0.8897  -11.3422   30.0129 H   0  0  0  0  0  0  0  0  0  0  0  0
    1.9647  -10.1575   29.2270 H   0  0  0  0  0  0  0  0  0  0  0  0
    2.4325  -11.8763   29.2842 H   0  0  0  0  0  0  0  0  0  0  0  0
    3.1226  -12.0372   25.7907 H   0  0  0  0  0  0  0  0  0  0  0  0
    4.5864  -10.5202   24.0325 H   0  0  0  0  0  0  0  0  0  0  0  0
    1.1810   -7.6706   26.6572 H   0  0  0  0  0  0  0  0  0  0  0  0
    2.1383   -5.6798   26.2368 H   0  0  0  0  0  0  0  0  0  0  0  0
    3.4968   -6.5759   25.5593 H   0  0  0  0  0  0  0  0  0  0  0  0
    2.5695   -6.3765   23.3040 H   0  0  0  0  0  0  0  0  0  0  0  0
    2.2664   -4.7787   24.0156 H   0  0  0  0  0  0  0  0  0  0  0  0
    0.1639   -6.0629   23.0040 H   0  0  0  0  0  0  0  0  0  0  0  0
   -0.0028   -5.4028   24.6408 H   0  0  0  0  0  0  0  0  0  0  0  0
   -0.5718   -7.6524   25.0871 H   0  0  0  0  0  0  0  0  0  0  0  0
    0.4783   -8.2681   23.8104 H   0  0  0  0  0  0  0  0  0  0  0  0
   -1.6761  -15.0296   28.1439 H   0  0  0  0  0  0  0  0  0  0  0  0
   -3.8761  -16.1217   32.0236 H   0  0  0  0  0  0  0  0  0  0  0  0
   -3.8602  -18.9372   29.1424 H   0  0  0  0  0  0  0  0  0  0  0  0
   -2.4269  -17.1266   28.0871 H   0  0  0  0  0  0  0  0  0  0  0  0
  1  2  1  0
  2  3  1  0
  3  4  1  0
  4  5  1  0
  4  6  1  0
  6  7  2  0
  6  8  1  0
  8  9  2  0
  9 10  1  0
 10 11  2  0
 11 12  1  0
 12 13  1  0
 13 14  1  0
 14 15  1  0
 15 16  1  0
 16 17  1  0
  2 18  1  0
 18 19  1  0
 19 20  2  0
 19 21  1  0
 21 22  1  0
 22 23  2  0
 23 24  1  0
 24 25  1  0
 12  8  1  0
 17 13  1  0
 25 21  2  0
  1 26  1  0
  1 27  1  0
  1 28  1  0
  2 29  1  0
  3 30  1  0
  3 31  1  0
  5 32  1  0
  5 33  1  0
  5 34  1  0
  9 35  1  0
 10 36  1  0
 13 37  1  0
 14 38  1  0
 14 39  1  0
 15 40  1  0
 15 41  1  0
 16 42  1  0
 16 43  1  0
 17 44  1  0
 17 45  1  0
 18 46  1  0
 22 47  1  0
 24 48  1  0
 25 49  1  0
M  END
>  <Energy>  (1002) 
21.263408244443511

>  <compound_id>  (1002) 
28373

>  <target_id>  (1002) 
1

>  <reference_id>  (1002) 
81

>  <inspiration_ids>  (1002) 
[123, 81]

>  <energy_score>  (1002) 
-8.624225803357206

>  <distance_score>  (1002) 
14.351333250503188

>  <path>  (1002) 
/opt/xchem-fragalysis-2/maxwin/BulkDock/SCRATCH/511024/C28373-P81/C28373-P81.minimised.mol

>  <scratch_subdir>  (1002) 
/opt/xchem-fragalysis-2/maxwin/BulkDock/SCRATCH/511024/C28373-P81

>  <fragmenstein_runtime>  (1002) 
42.845633029937744

>  <fragmenstein_outcome>  (1002) 
too moved

>  <fragmenstein_mode>  (1002) 
expansion

>  <fragmenstein_error>  (1002) 


$$$$
C18705-P123
     RDKit          3D

 49 51  0  0  0  0  0  0  0  0999 V2000
    3.0183  -12.3871   23.0926 C   0  0  0  0  0  0  0  0  0  0  0  0
    2.4997  -13.0609   24.2577 C   0  0  0  0  0  0  0  0  0  0  0  0
    4.2265  -13.7464   25.1978 C   0  0  0  0  0  0  0  0  0  0  0  0
    6.0907  -12.9927   25.5838 N   0  0  0  0  0  0  0  0  0  0  0  0
    5.4520  -13.0039   26.8338 C   0  0  0  0  0  0  0  0  0  0  0  0
    6.7418  -11.6482   24.7677 C   0  0  0  0  0  0  0  0  0  0  0  0
    6.6951  -10.4878   25.0381 O   0  0  0  0  0  0  0  0  0  0  0  0
    7.6173  -11.8425   23.5930 C   0  0  0  0  0  0  0  0  0  0  0  0
    7.5834  -11.2186   22.3258 C   0  0  0  0  0  0  0  0  0  0  0  0
    8.8927  -11.1554   21.8304 C   0  0  0  0  0  0  0  0  0  0  0  0
    9.7565  -11.6806   22.6899 N   0  0  0  0  0  0  0  0  0  0  0  0
    8.9861  -12.0897   23.7350 N   0  0  0  0  0  0  0  0  0  0  0  0
    9.6300  -12.6839   24.8998 C   0  0  0  0  0  0  0  0  0  0  0  0
   10.4837  -11.6710   25.6813 C   0  0  0  0  0  0  0  0  0  0  0  0
   11.7865  -12.3975   25.9891 C   0  0  0  0  0  0  0  0  0  0  0  0
   11.9714  -13.3242   24.7999 C   0  0  0  0  0  0  0  0  0  0  0  0
   10.5663  -13.8533   24.5486 C   0  0  0  0  0  0  0  0  0  0  0  0
    0.9568  -14.1663   23.7750 N   0  0  0  0  0  0  0  0  0  0  0  0
   -0.7768  -14.2736   24.4981 C   0  0  0  0  0  0  0  0  0  0  0  0
   -1.1919  -13.5026   25.3652 O   0  0  0  0  0  0  0  0  0  0  0  0
   -1.9194  -15.4817   24.2678 C   0  0  0  0  0  0  0  0  0  0  0  0
   -2.7540  -15.6050   25.3848 C   0  0  0  0  0  0  0  0  0  0  0  0
   -2.4560  -16.6646   26.7682 C   0  0  0  0  0  0  0  0  0  0  0  0
   -1.9997  -17.6102   25.9710 N   0  0  0  0  0  0  0  0  0  0  0  0
   -2.3896  -16.8638   24.9113 N   0  0  0  0  0  0  0  0  0  0  0  0
    3.7872  -11.6884   22.8187 H   0  0  0  0  0  0  0  0  0  0  0  0
    2.1217  -11.8113   23.0457 H   0  0  0  0  0  0  0  0  0  0  0  0
    3.2453  -13.0416   22.2756 H   0  0  0  0  0  0  0  0  0  0  0  0
    1.9206  -12.4384   24.9127 H   0  0  0  0  0  0  0  0  0  0  0  0
    4.4643  -14.6671   24.6148 H   0  0  0  0  0  0  0  0  0  0  0  0
    3.9114  -14.3349   26.0708 H   0  0  0  0  0  0  0  0  0  0  0  0
    5.4438  -11.9752   27.2543 H   0  0  0  0  0  0  0  0  0  0  0  0
    4.7921  -13.6508   27.3958 H   0  0  0  0  0  0  0  0  0  0  0  0
    6.4210  -13.0392   27.3276 H   0  0  0  0  0  0  0  0  0  0  0  0
    6.7158  -10.7990   21.8402 H   0  0  0  0  0  0  0  0  0  0  0  0
    9.2498  -10.7362   20.8992 H   0  0  0  0  0  0  0  0  0  0  0  0
    8.8365  -13.0705   25.5476 H   0  0  0  0  0  0  0  0  0  0  0  0
    9.9822  -11.3467   26.5995 H   0  0  0  0  0  0  0  0  0  0  0  0
   10.6923  -10.7694   25.0927 H   0  0  0  0  0  0  0  0  0  0  0  0
   12.6261  -11.7081   26.1153 H   0  0  0  0  0  0  0  0  0  0  0  0
   11.6824  -12.9816   26.9112 H   0  0  0  0  0  0  0  0  0  0  0  0
   12.3289  -12.7616   23.9296 H   0  0  0  0  0  0  0  0  0  0  0  0
   12.6850  -14.1273   25.0054 H   0  0  0  0  0  0  0  0  0  0  0  0
   10.3707  -14.6881   25.2338 H   0  0  0  0  0  0  0  0  0  0  0  0
   10.4457  -14.2342   23.5295 H   0  0  0  0  0  0  0  0  0  0  0  0
    1.0467  -14.8070   23.0518 H   0  0  0  0  0  0  0  0  0  0  0  0
   -3.7858  -15.7257   25.0087 H   0  0  0  0  0  0  0  0  0  0  0  0
   -3.1270  -16.8968   27.5609 H   0  0  0  0  0  0  0  0  0  0  0  0
   -2.0897  -18.6241   25.9951 H   0  0  0  0  0  0  0  0  0  0  0  0
  1  2  1  0
  2  3  1  0
  3  4  1  0
  4  5  1  0
  4  6  1  0
  6  7  2  0
  6  8  1  0
  8  9  2  0
  9 10  1  0
 10 11  2  0
 11 12  1  0
 12 13  1  0
 13 14  1  0
 14 15  1  0
 15 16  1  0
 16 17  1  0
  2 18  1  0
 18 19  1  0
 19 20  2  0
 19 21  1  0
 21 22  1  0
 22 23  2  0
 23 24  1  0
 24 25  1  0
 12  8  1  0
 17 13  1  0
 25 21  2  0
  1 26  1  0
  1 27  1  0
  1 28  1  0
  2 29  1  0
  3 30  1  0
  3 31  1  0
  5 32  1  0
  5 33  1  0
  5 34  1  0
  9 35  1  0
 10 36  1  0
 13 37  1  0
 14 38  1  0
 14 39  1  0
 15 40  1  0
 15 41  1  0
 16 42  1  0
 16 43  1  0
 17 44  1  0
 17 45  1  0
 18 46  1  0
 22 47  1  0
 23 48  1  0
 24 49  1  0
M  END
>  <Energy>  (1003) 
859.36144118246671

>  <compound_id>  (1003) 
18705

>  <target_id>  (1003) 
1

>  <reference_id>  (1003) 
123

>  <inspiration_ids>  (1003) 
[123, 81]

>  <energy_score>  (1003) 
787.978854112903

>  <distance_score>  (1003) 
13.689566413622206

>  <path>  (1003) 
/opt/xchem-fragalysis-2/maxwin/BulkDock/SCRATCH/511024/C18705-P123/C18705-P123.minimised.mol

>  <scratch_subdir>  (1003) 
/opt/xchem-fragalysis-2/maxwin/BulkDock/SCRATCH/511024/C18705-P123

>  <fragmenstein_runtime>  (1003) 
42.25721764564514

>  <fragmenstein_outcome>  (1003) 
too moved

>  <fragmenstein_mode>  (1003) 
expansion

>  <fragmenstein_error>  (1003) 


$$$$
C18705-P81
     RDKit          3D

 49 51  0  0  0  0  0  0  0  0999 V2000
    2.9228   -3.4750   18.3105 C   0  0  0  0  0  0  0  0  0  0  0  0
    2.5464   -4.4692   17.2080 C   0  0  0  0  0  0  0  0  0  0  0  0
    3.6133   -4.3595   15.9153 C   0  0  0  0  0  0  0  0  0  0  0  0
    3.8032   -2.8298   15.2206 N   0  0  0  0  0  0  0  0  0  0  0  0
    2.3833   -3.0501   14.8947 C   0  0  0  0  0  0  0  0  0  0  0  0
    5.0150   -2.7921   14.3279 C   0  0  0  0  0  0  0  0  0  0  0  0
    5.1127   -3.0240   13.1553 O   0  0  0  0  0  0  0  0  0  0  0  0
    6.4690   -2.2207   14.9962 C   0  0  0  0  0  0  0  0  0  0  0  0
    7.5788   -2.9070   15.3339 C   0  0  0  0  0  0  0  0  0  0  0  0
    8.4269   -2.6386   14.3340 C   0  0  0  0  0  0  0  0  0  0  0  0
    7.6798   -1.8964   13.5088 N   0  0  0  0  0  0  0  0  0  0  0  0
    7.3723   -1.0923   14.4561 N   0  0  0  0  0  0  0  0  0  0  0  0
    8.7459   -0.1723   14.8392 C   0  0  0  0  0  0  0  0  0  0  0  0
    9.4204   -0.6876   16.0517 C   0  0  0  0  0  0  0  0  0  0  0  0
    8.4437   -0.0137   17.0032 C   0  0  0  0  0  0  0  0  0  0  0  0
    8.8493    1.4068   16.8873 C   0  0  0  0  0  0  0  0  0  0  0  0
    8.8889    1.4322   15.4103 C   0  0  0  0  0  0  0  0  0  0  0  0
    2.0494   -5.7229   17.8788 N   0  0  0  0  0  0  0  0  0  0  0  0
    0.7138   -6.3250   17.9154 C   0  0  0  0  0  0  0  0  0  0  0  0
   -0.2975   -6.0123   17.3523 O   0  0  0  0  0  0  0  0  0  0  0  0
    0.5313   -7.4906   18.9163 C   0  0  0  0  0  0  0  0  0  0  0  0
   -0.7117   -8.2064   19.1612 C   0  0  0  0  0  0  0  0  0  0  0  0
   -0.4916   -9.0598   20.2165 C   0  0  0  0  0  0  0  0  0  0  0  0
    0.8179   -8.8716   20.5494 N   0  0  0  0  0  0  0  0  0  0  0  0
    1.4545   -7.9195   19.8022 N   0  0  0  0  0  0  0  0  0  0  0  0
    3.2891   -2.5281   17.9049 H   0  0  0  0  0  0  0  0  0  0  0  0
    2.0480   -3.2491   18.9320 H   0  0  0  0  0  0  0  0  0  0  0  0
    3.6763   -3.8944   18.9818 H   0  0  0  0  0  0  0  0  0  0  0  0
    1.5889   -4.1177   16.8211 H   0  0  0  0  0  0  0  0  0  0  0  0
    4.5911   -4.6825   16.2507 H   0  0  0  0  0  0  0  0  0  0  0  0
    3.3881   -5.1103   15.1405 H   0  0  0  0  0  0  0  0  0  0  0  0
    1.7223   -2.6487   15.6665 H   0  0  0  0  0  0  0  0  0  0  0  0
    2.0642   -3.9722   14.3918 H   0  0  0  0  0  0  0  0  0  0  0  0
    2.2244   -2.3251   14.0800 H   0  0  0  0  0  0  0  0  0  0  0  0
    7.7525   -3.8154   15.8132 H   0  0  0  0  0  0  0  0  0  0  0  0
    9.4725   -2.9080   14.2374 H   0  0  0  0  0  0  0  0  0  0  0  0
    9.3228   -0.1942   13.9129 H   0  0  0  0  0  0  0  0  0  0  0  0
   10.4459   -0.2962   16.1425 H   0  0  0  0  0  0  0  0  0  0  0  0
    9.5567   -1.7436   16.1213 H   0  0  0  0  0  0  0  0  0  0  0  0
    8.2911   -0.3424   18.0153 H   0  0  0  0  0  0  0  0  0  0  0  0
    7.4413   -0.1912   16.6289 H   0  0  0  0  0  0  0  0  0  0  0  0
    8.1379    2.1170   17.3169 H   0  0  0  0  0  0  0  0  0  0  0  0
    9.8385    1.6573   17.2662 H   0  0  0  0  0  0  0  0  0  0  0  0
    9.8514    1.8282   15.0560 H   0  0  0  0  0  0  0  0  0  0  0  0
    8.1398    2.2119   15.2903 H   0  0  0  0  0  0  0  0  0  0  0  0
    2.6899   -6.3021   18.4191 H   0  0  0  0  0  0  0  0  0  0  0  0
   -1.6403   -8.0564   18.6272 H   0  0  0  0  0  0  0  0  0  0  0  0
   -1.1166   -9.7692   20.7378 H   0  0  0  0  0  0  0  0  0  0  0  0
    1.3679   -9.3905   21.2377 H   0  0  0  0  0  0  0  0  0  0  0  0
  1  2  1  0
  2  3  1  0
  3  4  1  0
  4  5  1  0
  4  6  1  0
  6  7  2  0
  6  8  1  0
  8  9  2  0
  9 10  1  0
 10 11  2  0
 11 12  1  0
 12 13  1  0
 13 14  1  0
 14 15  1  0
 15 16  1  0
 16 17  1  0
  2 18  1  0
 18 19  1  0
 19 20  2  0
 19 21  1  0
 21 22  1  0
 22 23  2  0
 23 24  1  0
 24 25  1  0
 12  8  1  0
 17 13  1  0
 25 21  2  0
  1 26  1  0
  1 27  1  0
  1 28  1  0
  2 29  1  0
  3 30  1  0
  3 31  1  0
  5 32  1  0
  5 33  1  0
  5 34  1  0
  9 35  1  0
 10 36  1  0
 13 37  1  0
 14 38  1  0
 14 39  1  0
 15 40  1  0
 15 41  1  0
 16 42  1  0
 16 43  1  0
 17 44  1  0
 17 45  1  0
 18 46  1  0
 22 47  1  0
 23 48  1  0
 24 49  1  0
M  END
>  <Energy>  (1004) 
381.47608349578826

>  <compound_id>  (1004) 
18705

>  <target_id>  (1004) 
1

>  <reference_id>  (1004) 
81

>  <inspiration_ids>  (1004) 
[123, 81]

>  <energy_score>  (1004) 
310.0934964262061

>  <distance_score>  (1004) 
17.232026561269773

>  <path>  (1004) 
/opt/xchem-fragalysis-2/maxwin/BulkDock/SCRATCH/511024/C18705-P81/C18705-P81.minimised.mol

>  <scratch_subdir>  (1004) 
/opt/xchem-fragalysis-2/maxwin/BulkDock/SCRATCH/511024/C18705-P81

>  <fragmenstein_runtime>  (1004) 
62.51669478416443

>  <fragmenstein_outcome>  (1004) 
too moved

>  <fragmenstein_mode>  (1004) 
expansion

>  <fragmenstein_error>  (1004) 


$$$$
C28374-P123
     RDKit          3D

 47 49  0  0  0  0  0  0  0  0999 V2000
    1.5859  -13.6379   17.8890 C   0  0  0  0  0  0  0  0  0  0  0  0
    2.5558  -14.3071   18.3690 N   0  0  0  0  0  0  0  0  0  0  0  0
    2.0371  -15.0712   19.8943 C   0  0  0  0  0  0  0  0  0  0  0  0
    2.1234  -14.7084   20.9326 O   0  0  0  0  0  0  0  0  0  0  0  0
    0.9206  -16.6014   19.6997 N   0  0  0  0  0  0  0  0  0  0  0  0
    0.0021  -17.3617   20.7131 C   0  0  0  0  0  0  0  0  0  0  0  0
   -0.5088  -18.9242   20.8124 C   0  0  0  0  0  0  0  0  0  0  0  0
   -1.9952  -19.2217   21.3262 C   0  0  0  0  0  0  0  0  0  0  0  0
   -2.3408  -19.5821   22.7686 C   0  0  0  0  0  0  0  0  0  0  0  0
   -3.4970  -19.1602   23.5001 C   0  0  0  0  0  0  0  0  0  0  0  0
   -3.6156  -19.7316   24.7033 N   0  0  0  0  0  0  0  0  0  0  0  0
   -2.5591  -20.5580   24.7536 N   0  0  0  0  0  0  0  0  0  0  0  0
   -1.7729  -20.5018   23.6306 C   0  0  0  0  0  0  0  0  0  0  0  0
    3.3770  -12.3498   18.1271 C   0  0  0  0  0  0  0  0  0  0  0  0
    2.5162  -10.3457   18.2165 C   0  0  0  0  0  0  0  0  0  0  0  0
    2.8671   -9.2444   17.2386 C   0  0  0  0  0  0  0  0  0  0  0  0
    3.7450  -10.5408   16.0147 C   0  0  0  0  0  0  0  0  0  0  0  0
    3.7357  -10.5088   17.3837 C   0  0  0  0  0  0  0  0  0  0  0  0
    4.8478   -8.9668   18.0686 N   0  0  0  0  0  0  0  0  0  0  0  0
    5.3352   -7.2444   17.3237 C   0  0  0  0  0  0  0  0  0  0  0  0
    6.2277   -6.4294   17.8924 C   0  0  0  0  0  0  0  0  0  0  0  0
    5.1026   -6.6834   18.4959 C   0  0  0  0  0  0  0  0  0  0  0  0
    5.3249   -7.9640   19.0685 N   0  0  0  0  0  0  0  0  0  0  0  0
    1.2376  -14.5840   17.7669 H   0  0  0  0  0  0  0  0  0  0  0  0
    1.4361  -13.7592   16.7842 H   0  0  0  0  0  0  0  0  0  0  0  0
    0.5623  -13.3993   18.1674 H   0  0  0  0  0  0  0  0  0  0  0  0
    0.9771  -16.9124   18.7724 H   0  0  0  0  0  0  0  0  0  0  0  0
   -0.2377  -16.7041   21.5228 H   0  0  0  0  0  0  0  0  0  0  0  0
   -0.9122  -17.0694   20.1628 H   0  0  0  0  0  0  0  0  0  0  0  0
   -0.4722  -19.2822   19.7732 H   0  0  0  0  0  0  0  0  0  0  0  0
    0.2020  -19.5547   21.3575 H   0  0  0  0  0  0  0  0  0  0  0  0
   -2.6526  -18.4157   20.9823 H   0  0  0  0  0  0  0  0  0  0  0  0
   -2.3192  -20.1021   20.7499 H   0  0  0  0  0  0  0  0  0  0  0  0
   -4.2602  -18.4636   23.1768 H   0  0  0  0  0  0  0  0  0  0  0  0
   -2.4328  -21.1342   25.5792 H   0  0  0  0  0  0  0  0  0  0  0  0
   -0.9039  -21.1372   23.5340 H   0  0  0  0  0  0  0  0  0  0  0  0
    4.2042  -12.5381   18.8508 H   0  0  0  0  0  0  0  0  0  0  0  0
    2.2800   -9.7446   19.1342 H   0  0  0  0  0  0  0  0  0  0  0  0
    1.5558   -9.9041   17.8715 H   0  0  0  0  0  0  0  0  0  0  0  0
    3.1048   -8.4045   17.8837 H   0  0  0  0  0  0  0  0  0  0  0  0
    2.0385   -8.4886   16.9827 H   0  0  0  0  0  0  0  0  0  0  0  0
    3.4381  -10.4244   14.9407 H   0  0  0  0  0  0  0  0  0  0  0  0
    3.9678  -11.6221   15.8977 H   0  0  0  0  0  0  0  0  0  0  0  0
    2.8749  -10.8804   16.7098 H   0  0  0  0  0  0  0  0  0  0  0  0
    4.5551   -6.8017   16.6212 H   0  0  0  0  0  0  0  0  0  0  0  0
    7.0417   -6.5592   18.5477 H   0  0  0  0  0  0  0  0  0  0  0  0
    4.6529   -5.8157   18.9754 H   0  0  0  0  0  0  0  0  0  0  0  0
  1  2  1  0
  2  3  1  0
  3  4  2  0
  3  5  1  0
  5  6  1  0
  6  7  1  0
  7  8  1  0
  8  9  1  0
  9 10  1  0
 10 11  2  0
 11 12  1  0
 12 13  1  0
  2 14  1  0
 14 15  1  0
 15 16  1  0
 16 17  1  0
 17 18  1  0
 18 19  1  0
 19 20  1  0
 20 21  2  0
 21 22  1  0
 22 23  2  0
 13  9  2  0
 18 14  1  0
 23 19  1  0
  1 24  1  0
  1 25  1  0
  1 26  1  0
  5 27  1  0
  6 28  1  0
  6 29  1  0
  7 30  1  0
  7 31  1  0
  8 32  1  0
  8 33  1  0
 10 34  1  0
 12 35  1  0
 13 36  1  0
 14 37  1  0
 15 38  1  0
 15 39  1  0
 16 40  1  0
 16 41  1  0
 17 42  1  0
 17 43  1  0
 18 44  1  0
 20 45  1  0
 21 46  1  0
 22 47  1  0
M  END
>  <Energy>  (1005) 
1739.3687617180412

>  <compound_id>  (1005) 
28374

>  <target_id>  (1005) 
1

>  <reference_id>  (1005) 
123

>  <inspiration_ids>  (1005) 
[123, 81]

>  <energy_score>  (1005) 
1733.705912938602

>  <distance_score>  (1005) 
12.739349807373479

>  <path>  (1005) 
/opt/xchem-fragalysis-2/maxwin/BulkDock/SCRATCH/511024/C28374-P123/C28374-P123.minimised.mol

>  <scratch_subdir>  (1005) 
/opt/xchem-fragalysis-2/maxwin/BulkDock/SCRATCH/511024/C28374-P123

>  <fragmenstein_runtime>  (1005) 
42.08703136444092

>  <fragmenstein_outcome>  (1005) 
too moved

>  <fragmenstein_mode>  (1005) 
expansion

>  <fragmenstein_error>  (1005) 


$$$$
C28374-P81
     RDKit          3D

 47 49  0  0  0  0  0  0  0  0999 V2000
   -1.5679  -12.0478   21.0704 C   0  0  0  0  0  0  0  0  0  0  0  0
   -0.4477  -12.7177   22.6781 N   0  0  0  0  0  0  0  0  0  0  0  0
   -1.0915  -13.6452   24.4203 C   0  0  0  0  0  0  0  0  0  0  0  0
   -1.3814  -13.0272   25.4138 O   0  0  0  0  0  0  0  0  0  0  0  0
   -1.2448  -15.0426   24.2299 N   0  0  0  0  0  0  0  0  0  0  0  0
   -1.7039  -16.1890   25.2078 C   0  0  0  0  0  0  0  0  0  0  0  0
   -2.5525  -15.7103   26.4292 C   0  0  0  0  0  0  0  0  0  0  0  0
   -4.0627  -15.7660   26.2766 C   0  0  0  0  0  0  0  0  0  0  0  0
   -4.5945  -17.1376   26.3163 C   0  0  0  0  0  0  0  0  0  0  0  0
   -5.9495  -17.4834   26.3179 C   0  0  0  0  0  0  0  0  0  0  0  0
   -6.1027  -18.7941   26.2323 N   0  0  0  0  0  0  0  0  0  0  0  0
   -4.8617  -19.2902   26.2024 N   0  0  0  0  0  0  0  0  0  0  0  0
   -3.9168  -18.3387   26.3402 C   0  0  0  0  0  0  0  0  0  0  0  0
   -0.1912  -10.7737   22.2875 C   0  0  0  0  0  0  0  0  0  0  0  0
   -1.5538   -9.8890   21.7548 C   0  0  0  0  0  0  0  0  0  0  0  0
   -1.4497   -8.5073   22.1895 C   0  0  0  0  0  0  0  0  0  0  0  0
    0.0105   -8.1948   22.2129 C   0  0  0  0  0  0  0  0  0  0  0  0
    0.5022   -9.2668   21.3251 C   0  0  0  0  0  0  0  0  0  0  0  0
    0.4740   -8.5615   19.9457 N   0  0  0  0  0  0  0  0  0  0  0  0
   -0.4964   -8.4364   18.9293 C   0  0  0  0  0  0  0  0  0  0  0  0
    0.1996   -8.3790   17.7191 C   0  0  0  0  0  0  0  0  0  0  0  0
    1.5277   -8.6181   17.9979 C   0  0  0  0  0  0  0  0  0  0  0  0
    1.6628   -8.6785   19.2672 N   0  0  0  0  0  0  0  0  0  0  0  0
   -1.9102  -12.9482   20.4898 H   0  0  0  0  0  0  0  0  0  0  0  0
   -2.5568  -11.6167   21.1991 H   0  0  0  0  0  0  0  0  0  0  0  0
   -1.0671  -11.5434   20.2370 H   0  0  0  0  0  0  0  0  0  0  0  0
   -1.0076  -15.2471   23.2841 H   0  0  0  0  0  0  0  0  0  0  0  0
   -2.1755  -17.0374   24.7082 H   0  0  0  0  0  0  0  0  0  0  0  0
   -0.8132  -16.5428   25.7251 H   0  0  0  0  0  0  0  0  0  0  0  0
   -2.2679  -14.6958   26.7137 H   0  0  0  0  0  0  0  0  0  0  0  0
   -2.2683  -16.3247   27.2960 H   0  0  0  0  0  0  0  0  0  0  0  0
   -4.5171  -15.1901   27.0929 H   0  0  0  0  0  0  0  0  0  0  0  0
   -4.3556  -15.2762   25.3401 H   0  0  0  0  0  0  0  0  0  0  0  0
   -6.8205  -16.8406   26.3383 H   0  0  0  0  0  0  0  0  0  0  0  0
   -4.7323  -20.2938   26.1219 H   0  0  0  0  0  0  0  0  0  0  0  0
   -2.8687  -18.5971   26.3813 H   0  0  0  0  0  0  0  0  0  0  0  0
    0.6789  -11.0643   21.7945 H   0  0  0  0  0  0  0  0  0  0  0  0
   -2.6115  -10.0674   21.9586 H   0  0  0  0  0  0  0  0  0  0  0  0
   -1.6104   -9.8682   20.6643 H   0  0  0  0  0  0  0  0  0  0  0  0
   -1.9256   -8.2793   23.1245 H   0  0  0  0  0  0  0  0  0  0  0  0
   -2.1011   -8.0856   21.4433 H   0  0  0  0  0  0  0  0  0  0  0  0
    0.4105   -7.2485   21.8731 H   0  0  0  0  0  0  0  0  0  0  0  0
    0.3657   -8.1951   23.2362 H   0  0  0  0  0  0  0  0  0  0  0  0
    1.5572   -9.2512   21.4588 H   0  0  0  0  0  0  0  0  0  0  0  0
   -1.5458   -8.6628   19.0667 H   0  0  0  0  0  0  0  0  0  0  0  0
   -0.2194   -8.2774   16.7418 H   0  0  0  0  0  0  0  0  0  0  0  0
    2.4496   -8.7735   17.4801 H   0  0  0  0  0  0  0  0  0  0  0  0
  1  2  1  0
  2  3  1  0
  3  4  2  0
  3  5  1  0
  5  6  1  0
  6  7  1  0
  7  8  1  0
  8  9  1  0
  9 10  1  0
 10 11  2  0
 11 12  1  0
 12 13  1  0
  2 14  1  0
 14 15  1  0
 15 16  1  0
 16 17  1  0
 17 18  1  0
 18 19  1  0
 19 20  1  0
 20 21  2  0
 21 22  1  0
 22 23  2  0
 13  9  2  0
 18 14  1  0
 23 19  1  0
  1 24  1  0
  1 25  1  0
  1 26  1  0
  5 27  1  0
  6 28  1  0
  6 29  1  0
  7 30  1  0
  7 31  1  0
  8 32  1  0
  8 33  1  0
 10 34  1  0
 12 35  1  0
 13 36  1  0
 14 37  1  0
 15 38  1  0
 15 39  1  0
 16 40  1  0
 16 41  1  0
 17 42  1  0
 17 43  1  0
 18 44  1  0
 20 45  1  0
 21 46  1  0
 22 47  1  0
M  END
>  <Energy>  (1006) 
660.67999659760335

>  <compound_id>  (1006) 
28374

>  <target_id>  (1006) 
1

>  <reference_id>  (1006) 
81

>  <inspiration_ids>  (1006) 
[123, 81]

>  <energy_score>  (1006) 
655.0171478181647

>  <distance_score>  (1006) 
12.979882744091952

>  <path>  (1006) 
/opt/xchem-fragalysis-2/maxwin/BulkDock/SCRATCH/511024/C28374-P81/C28374-P81.minimised.mol

>  <scratch_subdir>  (1006) 
/opt/xchem-fragalysis-2/maxwin/BulkDock/SCRATCH/511024/C28374-P81

>  <fragmenstein_runtime>  (1006) 
36.606908559799194

>  <fragmenstein_outcome>  (1006) 
too moved

>  <fragmenstein_mode>  (1006) 
expansion

>  <fragmenstein_error>  (1006) 


$$$$
C28376-P123
     RDKit          3D

 50 52  0  0  0  0  0  0  0  0999 V2000
   -1.2251  -15.6823   14.5835 C   0  0  0  0  0  0  0  0  0  0  0  0
   -1.8849  -14.5566   15.4008 C   0  0  0  0  0  0  0  0  0  0  0  0
   -1.4040  -13.1813   14.8769 N   0  0  0  0  0  0  0  0  0  0  0  0
    0.1127  -13.0343   14.7499 C   0  0  0  0  0  0  0  0  0  0  0  0
    0.7402  -11.6411   14.4572 C   0  0  0  0  0  0  0  0  0  0  0  0
    1.8318  -11.3771   13.5667 C   0  0  0  0  0  0  0  0  0  0  0  0
    2.2420  -10.0874   13.8218 C   0  0  0  0  0  0  0  0  0  0  0  0
    1.4147   -9.6250   14.8031 N   0  0  0  0  0  0  0  0  0  0  0  0
    1.4942   -8.3579   15.5138 C   0  0  0  0  0  0  0  0  0  0  0  0
    2.7723   -8.2336   16.3618 C   0  0  0  0  0  0  0  0  0  0  0  0
    3.5990   -7.1500   15.6821 C   0  0  0  0  0  0  0  0  0  0  0  0
    2.5484   -6.1987   15.1365 C   0  0  0  0  0  0  0  0  0  0  0  0
    1.4717   -7.1280   14.5901 C   0  0  0  0  0  0  0  0  0  0  0  0
    0.4991  -10.5448   15.2003 N   0  0  0  0  0  0  0  0  0  0  0  0
   -3.4511  -14.8652   15.5193 C   0  0  0  0  0  0  0  0  0  0  0  0
   -4.1175  -15.0805   14.1609 C   0  0  0  0  0  0  0  0  0  0  0  0
   -3.7983  -15.9782   16.4882 N   0  0  0  0  0  0  0  0  0  0  0  0
   -5.0659  -16.6326   16.7739 C   0  0  0  0  0  0  0  0  0  0  0  0
   -6.1390  -16.5113   16.2567 O   0  0  0  0  0  0  0  0  0  0  0  0
   -5.0673  -17.5474   17.9919 C   0  0  0  0  0  0  0  0  0  0  0  0
   -4.1939  -17.7428   19.1070 C   0  0  0  0  0  0  0  0  0  0  0  0
   -4.6710  -18.5775   20.0481 N   0  0  0  0  0  0  0  0  0  0  0  0
   -5.8661  -18.9390   19.5644 N   0  0  0  0  0  0  0  0  0  0  0  0
   -6.1463  -18.3560   18.3619 C   0  0  0  0  0  0  0  0  0  0  0  0
   -1.4244  -15.5640   13.5126 H   0  0  0  0  0  0  0  0  0  0  0  0
   -0.1394  -15.7057   14.7142 H   0  0  0  0  0  0  0  0  0  0  0  0
   -1.6002  -16.6665   14.8836 H   0  0  0  0  0  0  0  0  0  0  0  0
   -1.5571  -14.5615   16.4359 H   0  0  0  0  0  0  0  0  0  0  0  0
   -1.8062  -13.0093   13.9570 H   0  0  0  0  0  0  0  0  0  0  0  0
    0.5586  -13.3994   15.6766 H   0  0  0  0  0  0  0  0  0  0  0  0
    0.4423  -13.6939   13.9387 H   0  0  0  0  0  0  0  0  0  0  0  0
    2.2894  -12.0727   12.8765 H   0  0  0  0  0  0  0  0  0  0  0  0
    3.0445   -9.4910   13.4118 H   0  0  0  0  0  0  0  0  0  0  0  0
    0.6237   -8.3218   16.1823 H   0  0  0  0  0  0  0  0  0  0  0  0
    3.3327   -9.1685   16.4653 H   0  0  0  0  0  0  0  0  0  0  0  0
    2.5031   -7.9001   17.3720 H   0  0  0  0  0  0  0  0  0  0  0  0
    4.1872   -7.5781   14.8621 H   0  0  0  0  0  0  0  0  0  0  0  0
    4.2872   -6.6573   16.3751 H   0  0  0  0  0  0  0  0  0  0  0  0
    2.9488   -5.5307   14.3685 H   0  0  0  0  0  0  0  0  0  0  0  0
    2.1391   -5.5823   15.9457 H   0  0  0  0  0  0  0  0  0  0  0  0
    1.6993   -7.3861   13.5496 H   0  0  0  0  0  0  0  0  0  0  0  0
    0.4903   -6.6418   14.5921 H   0  0  0  0  0  0  0  0  0  0  0  0
   -3.9105  -13.9753   15.9678 H   0  0  0  0  0  0  0  0  0  0  0  0
   -5.2080  -15.0551   14.2544 H   0  0  0  0  0  0  0  0  0  0  0  0
   -3.8530  -16.0525   13.7320 H   0  0  0  0  0  0  0  0  0  0  0  0
   -3.8330  -14.2966   13.4521 H   0  0  0  0  0  0  0  0  0  0  0  0
   -3.1172  -16.2624   17.1792 H   0  0  0  0  0  0  0  0  0  0  0  0
   -3.2318  -17.2802   19.2918 H   0  0  0  0  0  0  0  0  0  0  0  0
   -6.4401  -19.5804   20.1030 H   0  0  0  0  0  0  0  0  0  0  0  0
   -7.0913  -18.5317   17.8662 H   0  0  0  0  0  0  0  0  0  0  0  0
  1  2  1  0
  2  3  1  0
  3  4  1  0
  4  5  1  0
  5  6  1  0
  6  7  2  0
  7  8  1  0
  8  9  1  0
  9 10  1  0
 10 11  1  0
 11 12  1  0
 12 13  1  0
  8 14  1  0
  2 15  1  0
 15 16  1  0
 15 17  1  0
 17 18  1  0
 18 19  2  0
 18 20  1  0
 20 21  1  0
 21 22  2  0
 22 23  1  0
 23 24  1  0
 14  5  2  0
 24 20  2  0
 13  9  1  0
  1 25  1  0
  1 26  1  0
  1 27  1  0
  2 28  1  0
  3 29  1  0
  4 30  1  0
  4 31  1  0
  6 32  1  0
  7 33  1  0
  9 34  1  0
 10 35  1  0
 10 36  1  0
 11 37  1  0
 11 38  1  0
 12 39  1  0
 12 40  1  0
 13 41  1  0
 13 42  1  0
 15 43  1  0
 16 44  1  0
 16 45  1  0
 16 46  1  0
 17 47  1  0
 21 48  1  0
 23 49  1  0
 24 50  1  0
M  END
>  <Energy>  (1007) 
71.252797544208335

>  <compound_id>  (1007) 
28376

>  <target_id>  (1007) 
1

>  <reference_id>  (1007) 
123

>  <inspiration_ids>  (1007) 
[123, 81]

>  <energy_score>  (1007) 
-21.05403770489363

>  <distance_score>  (1007) 
16.058427724544146

>  <path>  (1007) 
/opt/xchem-fragalysis-2/maxwin/BulkDock/SCRATCH/511024/C28376-P123/C28376-P123.minimised.mol

>  <scratch_subdir>  (1007) 
/opt/xchem-fragalysis-2/maxwin/BulkDock/SCRATCH/511024/C28376-P123

>  <fragmenstein_runtime>  (1007) 
59.546783685684204

>  <fragmenstein_outcome>  (1007) 
too moved

>  <fragmenstein_mode>  (1007) 
expansion

>  <fragmenstein_error>  (1007) 


$$$$
C28376-P81
     RDKit          3D

 50 52  0  0  0  0  0  0  0  0999 V2000
   -1.3829  -15.6470   14.4793 C   0  0  0  0  0  0  0  0  0  0  0  0
   -2.0705  -14.5499   15.3112 C   0  0  0  0  0  0  0  0  0  0  0  0
   -1.5405  -13.1662   14.8068 N   0  0  0  0  0  0  0  0  0  0  0  0
   -0.0212  -13.0339   14.7329 C   0  0  0  0  0  0  0  0  0  0  0  0
    0.5943  -11.6359   14.4435 C   0  0  0  0  0  0  0  0  0  0  0  0
    1.7198  -11.3648   13.6018 C   0  0  0  0  0  0  0  0  0  0  0  0
    2.0734  -10.0543   13.8328 C   0  0  0  0  0  0  0  0  0  0  0  0
    1.1827   -9.5856   14.7527 N   0  0  0  0  0  0  0  0  0  0  0  0
    1.1337   -8.2744   15.3858 C   0  0  0  0  0  0  0  0  0  0  0  0
    2.4951   -7.7538   15.8585 C   0  0  0  0  0  0  0  0  0  0  0  0
    2.9745   -6.7604   14.7975 C   0  0  0  0  0  0  0  0  0  0  0  0
    1.8549   -6.6338   13.7701 C   0  0  0  0  0  0  0  0  0  0  0  0
    0.6122   -7.1774   14.4593 C   0  0  0  0  0  0  0  0  0  0  0  0
    0.2862  -10.5305   15.1500 N   0  0  0  0  0  0  0  0  0  0  0  0
   -3.6614  -14.7510   15.2632 C   0  0  0  0  0  0  0  0  0  0  0  0
   -4.1989  -15.0259   13.8590 C   0  0  0  0  0  0  0  0  0  0  0  0
   -4.3244  -15.6912   16.2400 N   0  0  0  0  0  0  0  0  0  0  0  0
   -3.8735  -16.9454   16.8096 C   0  0  0  0  0  0  0  0  0  0  0  0
   -2.8941  -17.5926   16.5887 O   0  0  0  0  0  0  0  0  0  0  0  0
   -4.7491  -17.4513   17.9358 C   0  0  0  0  0  0  0  0  0  0  0  0
   -4.3316  -18.2777   19.0368 C   0  0  0  0  0  0  0  0  0  0  0  0
   -5.3057  -18.5748   19.9090 N   0  0  0  0  0  0  0  0  0  0  0  0
   -6.3801  -17.9868   19.3671 N   0  0  0  0  0  0  0  0  0  0  0  0
   -6.1000  -17.2903   18.2136 C   0  0  0  0  0  0  0  0  0  0  0  0
   -1.8027  -16.6354   14.6726 H   0  0  0  0  0  0  0  0  0  0  0  0
   -0.3118  -15.7115   14.6910 H   0  0  0  0  0  0  0  0  0  0  0  0
   -1.4895  -15.4570   13.4049 H   0  0  0  0  0  0  0  0  0  0  0  0
   -1.7995  -14.6032   16.3639 H   0  0  0  0  0  0  0  0  0  0  0  0
   -1.8525  -12.4504   15.4666 H   0  0  0  0  0  0  0  0  0  0  0  0
    0.3338  -13.6960   13.9356 H   0  0  0  0  0  0  0  0  0  0  0  0
    0.3965  -13.3825   15.6782 H   0  0  0  0  0  0  0  0  0  0  0  0
    2.2272  -12.0656   12.9528 H   0  0  0  0  0  0  0  0  0  0  0  0
    2.8735   -9.4496   13.4319 H   0  0  0  0  0  0  0  0  0  0  0  0
    0.4657   -8.3827   16.2499 H   0  0  0  0  0  0  0  0  0  0  0  0
    2.3709   -7.2187   16.8083 H   0  0  0  0  0  0  0  0  0  0  0  0
    3.2285   -8.5479   16.0343 H   0  0  0  0  0  0  0  0  0  0  0  0
    3.9016   -7.0991   14.3230 H   0  0  0  0  0  0  0  0  0  0  0  0
    3.1847   -5.7897   15.2610 H   0  0  0  0  0  0  0  0  0  0  0  0
    2.0895   -7.2304   12.8817 H   0  0  0  0  0  0  0  0  0  0  0  0
    1.7195   -5.5996   13.4383 H   0  0  0  0  0  0  0  0  0  0  0  0
   -0.1344   -7.5296   13.7405 H   0  0  0  0  0  0  0  0  0  0  0  0
    0.1550   -6.3795   15.0576 H   0  0  0  0  0  0  0  0  0  0  0  0
   -4.0748  -13.7795   15.5678 H   0  0  0  0  0  0  0  0  0  0  0  0
   -5.2916  -14.9428   13.8449 H   0  0  0  0  0  0  0  0  0  0  0  0
   -3.9521  -16.0391   13.5254 H   0  0  0  0  0  0  0  0  0  0  0  0
   -3.8006  -14.3099   13.1335 H   0  0  0  0  0  0  0  0  0  0  0  0
   -5.1583  -15.3918   16.7215 H   0  0  0  0  0  0  0  0  0  0  0  0
   -3.3307  -18.6527   19.2162 H   0  0  0  0  0  0  0  0  0  0  0  0
   -7.2768  -18.1024   19.8285 H   0  0  0  0  0  0  0  0  0  0  0  0
   -6.8883  -16.7737   17.6865 H   0  0  0  0  0  0  0  0  0  0  0  0
  1  2  1  0
  2  3  1  0
  3  4  1  0
  4  5  1  0
  5  6  1  0
  6  7  2  0
  7  8  1  0
  8  9  1  0
  9 10  1  0
 10 11  1  0
 11 12  1  0
 12 13  1  0
  8 14  1  0
  2 15  1  0
 15 16  1  0
 15 17  1  0
 17 18  1  0
 18 19  2  0
 18 20  1  0
 20 21  1  0
 21 22  2  0
 22 23  1  0
 23 24  1  0
 14  5  2  0
 24 20  2  0
 13  9  1  0
  1 25  1  0
  1 26  1  0
  1 27  1  0
  2 28  1  0
  3 29  1  0
  4 30  1  0
  4 31  1  0
  6 32  1  0
  7 33  1  0
  9 34  1  0
 10 35  1  0
 10 36  1  0
 11 37  1  0
 11 38  1  0
 12 39  1  0
 12 40  1  0
 13 41  1  0
 13 42  1  0
 15 43  1  0
 16 44  1  0
 16 45  1  0
 16 46  1  0
 17 47  1  0
 21 48  1  0
 23 49  1  0
 24 50  1  0
M  END
>  <Energy>  (1008) 
63.35906218054118

>  <compound_id>  (1008) 
28376

>  <target_id>  (1008) 
1

>  <reference_id>  (1008) 
81

>  <inspiration_ids>  (1008) 
[123, 81]

>  <energy_score>  (1008) 
-28.947773068563606

>  <distance_score>  (1008) 
16.26065963088167

>  <path>  (1008) 
/opt/xchem-fragalysis-2/maxwin/BulkDock/SCRATCH/511024/C28376-P81/C28376-P81.minimised.mol

>  <scratch_subdir>  (1008) 
/opt/xchem-fragalysis-2/maxwin/BulkDock/SCRATCH/511024/C28376-P81

>  <fragmenstein_runtime>  (1008) 
51.13010597229004

>  <fragmenstein_outcome>  (1008) 
too moved

>  <fragmenstein_mode>  (1008) 
expansion

>  <fragmenstein_error>  (1008) 


$$$$
C18707-P123
     RDKit          3D

 50 52  0  0  0  0  0  0  0  0999 V2000
   -0.7959  -14.4188   24.0898 C   0  0  0  0  0  0  0  0  0  0  0  0
    0.5184  -14.8765   24.5283 C   0  0  0  0  0  0  0  0  0  0  0  0
    1.9986  -13.1481   23.9034 N   0  0  0  0  0  0  0  0  0  0  0  0
    3.2783  -11.4348   22.9676 C   0  0  0  0  0  0  0  0  0  0  0  0
    4.5526   -9.4752   22.4209 C   0  0  0  0  0  0  0  0  0  0  0  0
    4.1113   -7.7168   21.9521 C   0  0  0  0  0  0  0  0  0  0  0  0
    4.9541   -6.3540   21.3313 C   0  0  0  0  0  0  0  0  0  0  0  0
    6.6549   -6.3051   20.8388 N   0  0  0  0  0  0  0  0  0  0  0  0
    7.8984   -4.5817   20.0244 C   0  0  0  0  0  0  0  0  0  0  0  0
    8.6289   -2.4951   18.9462 C   0  0  0  0  0  0  0  0  0  0  0  0
   10.2223   -2.6375   17.1563 C   0  0  0  0  0  0  0  0  0  0  0  0
   10.7756   -4.5568   17.7824 C   0  0  0  0  0  0  0  0  0  0  0  0
    9.7458   -5.3665   19.5000 C   0  0  0  0  0  0  0  0  0  0  0  0
    5.9160   -8.1928   21.5757 N   0  0  0  0  0  0  0  0  0  0  0  0
   -0.4278  -17.1287   25.3420 C   0  0  0  0  0  0  0  0  0  0  0  0
    0.6142  -17.5058   27.0585 C   0  0  0  0  0  0  0  0  0  0  0  0
   -1.3893  -18.1778   26.8706 N   0  0  0  0  0  0  0  0  0  0  0  0
   -1.0771  -19.9914   27.6786 C   0  0  0  0  0  0  0  0  0  0  0  0
   -0.2956  -20.5608   27.1407 O   0  0  0  0  0  0  0  0  0  0  0  0
   -1.5398  -20.9674   29.1738 C   0  0  0  0  0  0  0  0  0  0  0  0
   -0.6360  -22.1986   29.3473 C   0  0  0  0  0  0  0  0  0  0  0  0
   -0.9287  -22.8672   30.5094 C   0  0  0  0  0  0  0  0  0  0  0  0
   -1.9366  -22.1629   31.0460 N   0  0  0  0  0  0  0  0  0  0  0  0
   -2.1967  -21.0172   30.4190 N   0  0  0  0  0  0  0  0  0  0  0  0
   -1.2325  -13.8275   24.9292 H   0  0  0  0  0  0  0  0  0  0  0  0
   -0.4685  -14.0494   23.1355 H   0  0  0  0  0  0  0  0  0  0  0  0
   -1.5363  -15.2096   24.0003 H   0  0  0  0  0  0  0  0  0  0  0  0
    0.9375  -14.0383   25.5405 H   0  0  0  0  0  0  0  0  0  0  0  0
    1.5506  -12.4810   24.5602 H   0  0  0  0  0  0  0  0  0  0  0  0
    2.2081  -11.5339   22.7101 H   0  0  0  0  0  0  0  0  0  0  0  0
    2.8965  -10.5924   22.4252 H   0  0  0  0  0  0  0  0  0  0  0  0
    3.0461   -7.5397   22.0939 H   0  0  0  0  0  0  0  0  0  0  0  0
    4.5496   -5.3789   21.1043 H   0  0  0  0  0  0  0  0  0  0  0  0
    7.8693   -4.3147   21.0842 H   0  0  0  0  0  0  0  0  0  0  0  0
    8.6698   -1.9187   17.4713 H   0  0  0  0  0  0  0  0  0  0  0  0
    8.1887   -1.2936   19.2681 H   0  0  0  0  0  0  0  0  0  0  0  0
   10.0202   -2.4464   16.0472 H   0  0  0  0  0  0  0  0  0  0  0  0
   11.2632   -2.1611   17.2477 H   0  0  0  0  0  0  0  0  0  0  0  0
   11.0517   -5.0920   16.8677 H   0  0  0  0  0  0  0  0  0  0  0  0
   11.8411   -4.3805   18.1215 H   0  0  0  0  0  0  0  0  0  0  0  0
    9.4232   -6.3939   19.5559 H   0  0  0  0  0  0  0  0  0  0  0  0
   10.4830   -5.4187   20.3082 H   0  0  0  0  0  0  0  0  0  0  0  0
   -1.7611  -17.2670   25.2554 H   0  0  0  0  0  0  0  0  0  0  0  0
    0.5938  -17.0015   27.9980 H   0  0  0  0  0  0  0  0  0  0  0  0
    1.7332  -17.3438   27.0044 H   0  0  0  0  0  0  0  0  0  0  0  0
    0.5427  -18.4803   26.7940 H   0  0  0  0  0  0  0  0  0  0  0  0
   -2.1689  -17.7380   27.3451 H   0  0  0  0  0  0  0  0  0  0  0  0
    0.0713  -22.5622   28.6209 H   0  0  0  0  0  0  0  0  0  0  0  0
   -0.5582  -23.7854   30.9387 H   0  0  0  0  0  0  0  0  0  0  0  0
   -2.4704  -22.3787   31.8796 H   0  0  0  0  0  0  0  0  0  0  0  0
  1  2  1  0
  2  3  1  0
  3  4  1  0
  4  5  1  0
  5  6  1  0
  6  7  2  0
  7  8  1  0
  8  9  1  0
  9 10  1  0
 10 11  1  0
 11 12  1  0
 12 13  1  0
  8 14  1  0
  2 15  1  0
 15 16  1  0
 15 17  1  0
 17 18  1  0
 18 19  2  0
 18 20  1  0
 20 21  1  0
 21 22  2  0
 22 23  1  0
 23 24  1  0
 14  5  2  0
 24 20  2  0
 13  9  1  0
  1 25  1  0
  1 26  1  0
  1 27  1  0
  2 28  1  0
  3 29  1  0
  4 30  1  0
  4 31  1  0
  6 32  1  0
  7 33  1  0
  9 34  1  0
 10 35  1  0
 10 36  1  0
 11 37  1  0
 11 38  1  0
 12 39  1  0
 12 40  1  0
 13 41  1  0
 13 42  1  0
 15 43  1  0
 16 44  1  0
 16 45  1  0
 16 46  1  0
 17 47  1  0
 21 48  1  0
 22 49  1  0
 23 50  1  0
M  END
>  <Energy>  (1009) 
5022.0280867564588

>  <compound_id>  (1009) 
18707

>  <target_id>  (1009) 
1

>  <reference_id>  (1009) 
123

>  <inspiration_ids>  (1009) 
[123, 81]

>  <energy_score>  (1009) 
4906.2669858658555

>  <distance_score>  (1009) 
11.538779711679757

>  <path>  (1009) 
/opt/xchem-fragalysis-2/maxwin/BulkDock/SCRATCH/511024/C18707-P123/C18707-P123.minimised.mol

>  <scratch_subdir>  (1009) 
/opt/xchem-fragalysis-2/maxwin/BulkDock/SCRATCH/511024/C18707-P123

>  <fragmenstein_runtime>  (1009) 
52.905256509780884

>  <fragmenstein_outcome>  (1009) 
too moved

>  <fragmenstein_mode>  (1009) 
expansion

>  <fragmenstein_error>  (1009) 


$$$$
C18707-P81
     RDKit          3D

 50 52  0  0  0  0  0  0  0  0999 V2000
    1.2786   -7.3930   18.1252 C   0  0  0  0  0  0  0  0  0  0  0  0
    1.3418   -6.4747   19.3505 C   0  0  0  0  0  0  0  0  0  0  0  0
    2.5717   -5.6399   19.3914 N   0  0  0  0  0  0  0  0  0  0  0  0
    3.8857   -6.2286   19.0797 C   0  0  0  0  0  0  0  0  0  0  0  0
    4.1713   -6.2670   17.5981 C   0  0  0  0  0  0  0  0  0  0  0  0
    4.9123   -7.2443   16.8924 C   0  0  0  0  0  0  0  0  0  0  0  0
    4.6941   -6.9623   15.5645 C   0  0  0  0  0  0  0  0  0  0  0  0
    3.8809   -5.8631   15.5339 N   0  0  0  0  0  0  0  0  0  0  0  0
    3.2264   -5.2180   14.4017 C   0  0  0  0  0  0  0  0  0  0  0  0
    3.2390   -5.9914   13.0766 C   0  0  0  0  0  0  0  0  0  0  0  0
    2.0750   -6.9683   13.1875 C   0  0  0  0  0  0  0  0  0  0  0  0
    1.0561   -6.2925   14.1002 C   0  0  0  0  0  0  0  0  0  0  0  0
    1.7181   -5.0127   14.6087 C   0  0  0  0  0  0  0  0  0  0  0  0
    3.7153   -5.3263   16.7541 N   0  0  0  0  0  0  0  0  0  0  0  0
    0.9832   -7.2427   20.6843 C   0  0  0  0  0  0  0  0  0  0  0  0
    0.9765   -6.3116   21.9001 C   0  0  0  0  0  0  0  0  0  0  0  0
   -0.2971   -7.9582   20.6712 N   0  0  0  0  0  0  0  0  0  0  0  0
   -1.5440   -7.6410   20.0480 C   0  0  0  0  0  0  0  0  0  0  0  0
   -1.8439   -6.7472   19.3091 O   0  0  0  0  0  0  0  0  0  0  0  0
   -2.6223   -8.6112   20.4301 C   0  0  0  0  0  0  0  0  0  0  0  0
   -3.8020   -8.9042   19.6722 C   0  0  0  0  0  0  0  0  0  0  0  0
   -4.6018   -9.6662   20.4792 C   0  0  0  0  0  0  0  0  0  0  0  0
   -3.9259   -9.7277   21.6546 N   0  0  0  0  0  0  0  0  0  0  0  0
   -2.6542   -9.2874   21.6016 N   0  0  0  0  0  0  0  0  0  0  0  0
    0.3055   -7.8817   18.0329 H   0  0  0  0  0  0  0  0  0  0  0  0
    1.4083   -6.8180   17.2057 H   0  0  0  0  0  0  0  0  0  0  0  0
    2.0385   -8.1765   18.1561 H   0  0  0  0  0  0  0  0  0  0  0  0
    0.5391   -5.7396   19.2069 H   0  0  0  0  0  0  0  0  0  0  0  0
    2.6203   -5.1122   20.2554 H   0  0  0  0  0  0  0  0  0  0  0  0
    4.6582   -5.6123   19.5534 H   0  0  0  0  0  0  0  0  0  0  0  0
    3.9712   -7.2264   19.5236 H   0  0  0  0  0  0  0  0  0  0  0  0
    5.4420   -8.0943   17.2968 H   0  0  0  0  0  0  0  0  0  0  0  0
    4.9994   -7.4873   14.6722 H   0  0  0  0  0  0  0  0  0  0  0  0
    3.7312   -4.2517   14.2897 H   0  0  0  0  0  0  0  0  0  0  0  0
    4.1778   -6.5002   12.8455 H   0  0  0  0  0  0  0  0  0  0  0  0
    3.0419   -5.2939   12.2520 H   0  0  0  0  0  0  0  0  0  0  0  0
    1.6520   -7.2048   12.2062 H   0  0  0  0  0  0  0  0  0  0  0  0
    2.4083   -7.9110   13.6367 H   0  0  0  0  0  0  0  0  0  0  0  0
    0.7980   -6.9589   14.9296 H   0  0  0  0  0  0  0  0  0  0  0  0
    0.1275   -6.0639   13.5666 H   0  0  0  0  0  0  0  0  0  0  0  0
    1.3837   -4.1716   13.9873 H   0  0  0  0  0  0  0  0  0  0  0  0
    1.4244   -4.7861   15.6379 H   0  0  0  0  0  0  0  0  0  0  0  0
    1.7452   -8.0114   20.8545 H   0  0  0  0  0  0  0  0  0  0  0  0
    1.9710   -5.9052   22.1056 H   0  0  0  0  0  0  0  0  0  0  0  0
    0.6573   -6.8521   22.7986 H   0  0  0  0  0  0  0  0  0  0  0  0
    0.2812   -5.4776   21.7554 H   0  0  0  0  0  0  0  0  0  0  0  0
   -0.3915   -8.8428   21.1705 H   0  0  0  0  0  0  0  0  0  0  0  0
   -4.0305   -8.5328   18.6831 H   0  0  0  0  0  0  0  0  0  0  0  0
   -5.5887  -10.0855   20.3644 H   0  0  0  0  0  0  0  0  0  0  0  0
   -4.2839  -10.1190   22.5285 H   0  0  0  0  0  0  0  0  0  0  0  0
  1  2  1  0
  2  3  1  0
  3  4  1  0
  4  5  1  0
  5  6  1  0
  6  7  2  0
  7  8  1  0
  8  9  1  0
  9 10  1  0
 10 11  1  0
 11 12  1  0
 12 13  1  0
  8 14  1  0
  2 15  1  0
 15 16  1  0
 15 17  1  0
 17 18  1  0
 18 19  2  0
 18 20  1  0
 20 21  1  0
 21 22  2  0
 22 23  1  0
 23 24  1  0
 14  5  2  0
 24 20  2  0
 13  9  1  0
  1 25  1  0
  1 26  1  0
  1 27  1  0
  2 28  1  0
  3 29  1  0
  4 30  1  0
  4 31  1  0
  6 32  1  0
  7 33  1  0
  9 34  1  0
 10 35  1  0
 10 36  1  0
 11 37  1  0
 11 38  1  0
 12 39  1  0
 12 40  1  0
 13 41  1  0
 13 42  1  0
 15 43  1  0
 16 44  1  0
 16 45  1  0
 16 46  1  0
 17 47  1  0
 21 48  1  0
 22 49  1  0
 23 50  1  0
M  END
>  <Energy>  (1010) 
96.609316432969933

>  <compound_id>  (1010) 
18707

>  <target_id>  (1010) 
1

>  <reference_id>  (1010) 
81

>  <inspiration_ids>  (1010) 
[123, 81]

>  <energy_score>  (1010) 
-19.151784457648205

>  <distance_score>  (1010) 
16.298340095814073

>  <path>  (1010) 
/opt/xchem-fragalysis-2/maxwin/BulkDock/SCRATCH/511024/C18707-P81/C18707-P81.minimised.mol

>  <scratch_subdir>  (1010) 
/opt/xchem-fragalysis-2/maxwin/BulkDock/SCRATCH/511024/C18707-P81

>  <fragmenstein_runtime>  (1010) 
50.226438999176025

>  <fragmenstein_outcome>  (1010) 
too moved

>  <fragmenstein_mode>  (1010) 
expansion

>  <fragmenstein_error>  (1010) 


$$$$
C28377-P123
     RDKit          3D

 46 48  0  0  0  0  0  0  0  0999 V2000
   -3.3801  -11.4688   26.9390 C   0  0  0  0  0  0  0  0  0  0  0  0
   -4.7939  -11.0157   26.7812 N   0  0  0  0  0  0  0  0  0  0  0  0
   -4.1126   -9.9383   25.8730 C   0  0  0  0  0  0  0  0  0  0  0  0
   -3.4919   -8.5898   26.4096 C   0  0  0  0  0  0  0  0  0  0  0  0
   -2.5192   -7.9183   25.4902 N   0  0  0  0  0  0  0  0  0  0  0  0
   -1.2391   -7.2837   25.7578 C   0  0  0  0  0  0  0  0  0  0  0  0
   -0.6060   -7.2092   26.7681 O   0  0  0  0  0  0  0  0  0  0  0  0
   -0.5615   -6.7158   24.5332 C   0  0  0  0  0  0  0  0  0  0  0  0
   -0.7462   -6.9309   23.1668 C   0  0  0  0  0  0  0  0  0  0  0  0
    0.2910   -6.2527   22.4901 C   0  0  0  0  0  0  0  0  0  0  0  0
    1.0802   -5.5956   23.3304 N   0  0  0  0  0  0  0  0  0  0  0  0
    0.5627   -5.8673   24.5557 N   0  0  0  0  0  0  0  0  0  0  0  0
    1.1842   -5.2608   25.7225 C   0  0  0  0  0  0  0  0  0  0  0  0
    0.3247   -4.1664   26.3665 C   0  0  0  0  0  0  0  0  0  0  0  0
    1.2979   -3.2531   27.1153 C   0  0  0  0  0  0  0  0  0  0  0  0
    2.6999   -3.7379   26.7622 C   0  0  0  0  0  0  0  0  0  0  0  0
    2.5164   -4.5357   25.4814 C   0  0  0  0  0  0  0  0  0  0  0  0
   -5.6402  -12.1395   26.4376 C   0  0  0  0  0  0  0  0  0  0  0  0
   -5.9562  -12.5761   25.3635 O   0  0  0  0  0  0  0  0  0  0  0  0
   -6.1218  -12.9521   27.5975 C   0  0  0  0  0  0  0  0  0  0  0  0
   -6.9146  -14.1469   27.5099 C   0  0  0  0  0  0  0  0  0  0  0  0
   -7.1664  -14.7220   28.6910 N   0  0  0  0  0  0  0  0  0  0  0  0
   -6.5483  -13.9098   29.5592 N   0  0  0  0  0  0  0  0  0  0  0  0
   -5.9237  -12.8422   28.9619 C   0  0  0  0  0  0  0  0  0  0  0  0
   -2.9749  -11.9681   26.0492 H   0  0  0  0  0  0  0  0  0  0  0  0
   -2.7028  -10.7586   27.4229 H   0  0  0  0  0  0  0  0  0  0  0  0
   -3.4121  -12.2907   27.6692 H   0  0  0  0  0  0  0  0  0  0  0  0
   -4.9960   -9.5888   25.3121 H   0  0  0  0  0  0  0  0  0  0  0  0
   -3.5410  -10.3658   25.0361 H   0  0  0  0  0  0  0  0  0  0  0  0
   -4.2964   -7.8674   26.5861 H   0  0  0  0  0  0  0  0  0  0  0  0
   -2.9766   -8.7266   27.3640 H   0  0  0  0  0  0  0  0  0  0  0  0
   -2.7974   -7.7128   24.5377 H   0  0  0  0  0  0  0  0  0  0  0  0
   -1.4939   -7.5542   22.6987 H   0  0  0  0  0  0  0  0  0  0  0  0
    0.4960   -6.2204   21.4269 H   0  0  0  0  0  0  0  0  0  0  0  0
    1.3857   -6.0675   26.4364 H   0  0  0  0  0  0  0  0  0  0  0  0
   -0.4303   -4.5793   27.0428 H   0  0  0  0  0  0  0  0  0  0  0  0
   -0.2110   -3.5857   25.6049 H   0  0  0  0  0  0  0  0  0  0  0  0
    1.1553   -2.2143   26.7968 H   0  0  0  0  0  0  0  0  0  0  0  0
    1.1333   -3.2892   28.1972 H   0  0  0  0  0  0  0  0  0  0  0  0
    3.0790   -4.3896   27.5584 H   0  0  0  0  0  0  0  0  0  0  0  0
    3.4062   -2.9114   26.6408 H   0  0  0  0  0  0  0  0  0  0  0  0
    3.3432   -5.2311   25.3058 H   0  0  0  0  0  0  0  0  0  0  0  0
    2.4607   -3.8491   24.6276 H   0  0  0  0  0  0  0  0  0  0  0  0
   -7.2986  -14.6098   26.6084 H   0  0  0  0  0  0  0  0  0  0  0  0
   -6.5930  -14.1379   30.5473 H   0  0  0  0  0  0  0  0  0  0  0  0
   -5.3897  -12.1144   29.5550 H   0  0  0  0  0  0  0  0  0  0  0  0
  1  2  1  0
  2  3  1  0
  3  4  1  0
  4  5  1  0
  5  6  1  0
  6  7  2  0
  6  8  1  0
  8  9  2  0
  9 10  1  0
 10 11  2  0
 11 12  1  0
 12 13  1  0
 13 14  1  0
 14 15  1  0
 15 16  1  0
 16 17  1  0
  2 18  1  0
 18 19  2  0
 18 20  1  0
 20 21  1  0
 21 22  2  0
 22 23  1  0
 23 24  1  0
 12  8  1  0
 17 13  1  0
 24 20  2  0
  1 25  1  0
  1 26  1  0
  1 27  1  0
  3 28  1  0
  3 29  1  0
  4 30  1  0
  4 31  1  0
  5 32  1  0
  9 33  1  0
 10 34  1  0
 13 35  1  0
 14 36  1  0
 14 37  1  0
 15 38  1  0
 15 39  1  0
 16 40  1  0
 16 41  1  0
 17 42  1  0
 17 43  1  0
 21 44  1  0
 23 45  1  0
 24 46  1  0
M  END
>  <Energy>  (1011) 
75.157335604909989

>  <compound_id>  (1011) 
28377

>  <target_id>  (1011) 
1

>  <reference_id>  (1011) 
123

>  <inspiration_ids>  (1011) 
[123, 81]

>  <energy_score>  (1011) 
56.220556578277694

>  <distance_score>  (1011) 
14.808781833970242

>  <path>  (1011) 
/opt/xchem-fragalysis-2/maxwin/BulkDock/SCRATCH/511024/C28377-P123/C28377-P123.minimised.mol

>  <scratch_subdir>  (1011) 
/opt/xchem-fragalysis-2/maxwin/BulkDock/SCRATCH/511024/C28377-P123

>  <fragmenstein_runtime>  (1011) 
39.5457558631897

>  <fragmenstein_outcome>  (1011) 
too moved

>  <fragmenstein_mode>  (1011) 
expansion

>  <fragmenstein_error>  (1011) 


$$$$
C28377-P81
     RDKit          3D

 46 48  0  0  0  0  0  0  0  0999 V2000
   -6.2299  -19.8842   26.9994 C   0  0  0  0  0  0  0  0  0  0  0  0
   -6.0678  -21.6376   27.4109 N   0  0  0  0  0  0  0  0  0  0  0  0
   -4.4580  -21.1235   27.5542 C   0  0  0  0  0  0  0  0  0  0  0  0
   -3.6584  -20.3422   26.4072 C   0  0  0  0  0  0  0  0  0  0  0  0
   -3.6560  -18.8469   26.4055 N   0  0  0  0  0  0  0  0  0  0  0  0
   -3.1949  -17.8979   27.3952 C   0  0  0  0  0  0  0  0  0  0  0  0
   -2.7717  -18.0706   28.4971 O   0  0  0  0  0  0  0  0  0  0  0  0
   -3.2875  -16.4632   26.9309 C   0  0  0  0  0  0  0  0  0  0  0  0
   -3.6780  -15.8713   25.7251 C   0  0  0  0  0  0  0  0  0  0  0  0
   -3.4423  -14.4872   25.8507 C   0  0  0  0  0  0  0  0  0  0  0  0
   -2.8914  -14.1727   27.0133 N   0  0  0  0  0  0  0  0  0  0  0  0
   -2.8991  -15.3458   27.7039 N   0  0  0  0  0  0  0  0  0  0  0  0
   -2.7156  -15.3166   29.1567 C   0  0  0  0  0  0  0  0  0  0  0  0
   -3.0313  -13.9681   29.8253 C   0  0  0  0  0  0  0  0  0  0  0  0
   -1.7175  -13.1855   29.8335 C   0  0  0  0  0  0  0  0  0  0  0  0
   -0.6125  -14.1956   29.5336 C   0  0  0  0  0  0  0  0  0  0  0  0
   -1.2767  -15.5655   29.6027 C   0  0  0  0  0  0  0  0  0  0  0  0
   -7.3889  -22.1779   28.6195 C   0  0  0  0  0  0  0  0  0  0  0  0
   -7.0822  -22.0747   30.5129 O   0  0  0  0  0  0  0  0  0  0  0  0
   -8.9407  -22.9419   27.9202 C   0  0  0  0  0  0  0  0  0  0  0  0
   -9.1944  -24.3544   27.6122 C   0  0  0  0  0  0  0  0  0  0  0  0
  -10.4634  -24.6780   27.3784 N   0  0  0  0  0  0  0  0  0  0  0  0
  -11.1174  -23.5448   27.6295 N   0  0  0  0  0  0  0  0  0  0  0  0
  -10.3072  -22.5442   28.0852 C   0  0  0  0  0  0  0  0  0  0  0  0
   -5.6106  -19.3124   27.7133 H   0  0  0  0  0  0  0  0  0  0  0  0
   -5.9492  -19.5286   26.0146 H   0  0  0  0  0  0  0  0  0  0  0  0
   -7.1469  -19.5253   27.4315 H   0  0  0  0  0  0  0  0  0  0  0  0
   -3.9523  -22.0976   27.6013 H   0  0  0  0  0  0  0  0  0  0  0  0
   -4.2902  -20.6591   28.5355 H   0  0  0  0  0  0  0  0  0  0  0  0
   -2.6018  -20.6107   26.5225 H   0  0  0  0  0  0  0  0  0  0  0  0
   -3.9854  -20.6770   25.4180 H   0  0  0  0  0  0  0  0  0  0  0  0
   -4.0229  -18.3429   25.6121 H   0  0  0  0  0  0  0  0  0  0  0  0
   -4.0884  -16.3599   24.8559 H   0  0  0  0  0  0  0  0  0  0  0  0
   -3.6675  -13.6929   25.1603 H   0  0  0  0  0  0  0  0  0  0  0  0
   -3.4032  -16.0629   29.5676 H   0  0  0  0  0  0  0  0  0  0  0  0
   -3.8439  -13.4113   29.3477 H   0  0  0  0  0  0  0  0  0  0  0  0
   -3.3353  -14.1477   30.8648 H   0  0  0  0  0  0  0  0  0  0  0  0
   -1.7243  -12.3936   29.0765 H   0  0  0  0  0  0  0  0  0  0  0  0
   -1.5631  -12.7038   30.8051 H   0  0  0  0  0  0  0  0  0  0  0  0
    0.2209  -14.1126   30.2381 H   0  0  0  0  0  0  0  0  0  0  0  0
   -0.2113  -14.0140   28.5304 H   0  0  0  0  0  0  0  0  0  0  0  0
   -1.2737  -15.9121   30.6441 H   0  0  0  0  0  0  0  0  0  0  0  0
   -0.7481  -16.3146   29.0092 H   0  0  0  0  0  0  0  0  0  0  0  0
   -8.4911  -25.1721   27.6368 H   0  0  0  0  0  0  0  0  0  0  0  0
  -12.1276  -23.5248   27.4919 H   0  0  0  0  0  0  0  0  0  0  0  0
  -10.7583  -21.6696   28.5141 H   0  0  0  0  0  0  0  0  0  0  0  0
  1  2  1  0
  2  3  1  0
  3  4  1  0
  4  5  1  0
  5  6  1  0
  6  7  2  0
  6  8  1  0
  8  9  2  0
  9 10  1  0
 10 11  2  0
 11 12  1  0
 12 13  1  0
 13 14  1  0
 14 15  1  0
 15 16  1  0
 16 17  1  0
  2 18  1  0
 18 19  2  0
 18 20  1  0
 20 21  1  0
 21 22  2  0
 22 23  1  0
 23 24  1  0
 12  8  1  0
 17 13  1  0
 24 20  2  0
  1 25  1  0
  1 26  1  0
  1 27  1  0
  3 28  1  0
  3 29  1  0
  4 30  1  0
  4 31  1  0
  5 32  1  0
  9 33  1  0
 10 34  1  0
 13 35  1  0
 14 36  1  0
 14 37  1  0
 15 38  1  0
 15 39  1  0
 16 40  1  0
 16 41  1  0
 17 42  1  0
 17 43  1  0
 21 44  1  0
 23 45  1  0
 24 46  1  0
M  END
>  <Energy>  (1012) 
571.92102721840502

>  <compound_id>  (1012) 
28377

>  <target_id>  (1012) 
1

>  <reference_id>  (1012) 
81

>  <inspiration_ids>  (1012) 
[123, 81]

>  <energy_score>  (1012) 
552.9842481917663

>  <distance_score>  (1012) 
15.418709426346748

>  <path>  (1012) 
/opt/xchem-fragalysis-2/maxwin/BulkDock/SCRATCH/511024/C28377-P81/C28377-P81.minimised.mol

>  <scratch_subdir>  (1012) 
/opt/xchem-fragalysis-2/maxwin/BulkDock/SCRATCH/511024/C28377-P81

>  <fragmenstein_runtime>  (1012) 
42.30809307098389

>  <fragmenstein_outcome>  (1012) 
too moved

>  <fragmenstein_mode>  (1012) 
expansion

>  <fragmenstein_error>  (1012) 


$$$$
C18708-P123
     RDKit          3D

 46 48  0  0  0  0  0  0  0  0999 V2000
    0.8102  -18.7025   24.7003 C   0  0  0  0  0  0  0  0  0  0  0  0
    0.0942  -18.8292   26.2002 N   0  0  0  0  0  0  0  0  0  0  0  0
    1.7379  -17.7691   26.7854 C   0  0  0  0  0  0  0  0  0  0  0  0
    3.0925  -17.5475   25.2643 C   0  0  0  0  0  0  0  0  0  0  0  0
    4.6467  -16.5937   24.4076 N   0  0  0  0  0  0  0  0  0  0  0  0
    5.2987  -15.6804   24.4887 C   0  0  0  0  0  0  0  0  0  0  0  0
    4.5551  -14.8304   25.6475 O   0  0  0  0  0  0  0  0  0  0  0  0
    6.7017  -15.2734   23.8627 C   0  0  0  0  0  0  0  0  0  0  0  0
    7.6407  -16.1808   23.2659 C   0  0  0  0  0  0  0  0  0  0  0  0
    8.6839  -15.4442   22.6796 C   0  0  0  0  0  0  0  0  0  0  0  0
    8.6268  -14.1907   23.0805 N   0  0  0  0  0  0  0  0  0  0  0  0
    7.7171  -14.2433   24.1194 N   0  0  0  0  0  0  0  0  0  0  0  0
    8.0533  -13.2749   25.1358 C   0  0  0  0  0  0  0  0  0  0  0  0
    8.9436  -13.8095   26.2516 C   0  0  0  0  0  0  0  0  0  0  0  0
    9.0407  -12.6446   27.2331 C   0  0  0  0  0  0  0  0  0  0  0  0
    7.8512  -11.7241   26.9442 C   0  0  0  0  0  0  0  0  0  0  0  0
    7.0528  -12.3774   25.8175 C   0  0  0  0  0  0  0  0  0  0  0  0
   -1.5884  -18.3675   26.0899 C   0  0  0  0  0  0  0  0  0  0  0  0
   -2.1157  -17.3028   26.2509 O   0  0  0  0  0  0  0  0  0  0  0  0
   -2.7684  -19.5910   25.4822 C   0  0  0  0  0  0  0  0  0  0  0  0
   -4.5303  -20.2553   25.2308 C   0  0  0  0  0  0  0  0  0  0  0  0
   -4.6203  -21.4435   24.4862 C   0  0  0  0  0  0  0  0  0  0  0  0
   -3.4372  -21.4922   23.7684 N   0  0  0  0  0  0  0  0  0  0  0  0
   -2.4479  -20.5165   24.0508 N   0  0  0  0  0  0  0  0  0  0  0  0
    1.0126  -19.6882   24.5016 H   0  0  0  0  0  0  0  0  0  0  0  0
    1.8734  -18.6940   24.6149 H   0  0  0  0  0  0  0  0  0  0  0  0
    0.2241  -19.1075   23.8138 H   0  0  0  0  0  0  0  0  0  0  0  0
    1.5295  -16.9243   27.4467 H   0  0  0  0  0  0  0  0  0  0  0  0
    2.5845  -18.3516   27.0417 H   0  0  0  0  0  0  0  0  0  0  0  0
    3.5068  -18.5711   25.2726 H   0  0  0  0  0  0  0  0  0  0  0  0
    3.4358  -17.0712   26.1944 H   0  0  0  0  0  0  0  0  0  0  0  0
    4.3456  -17.4230   24.0165 H   0  0  0  0  0  0  0  0  0  0  0  0
    7.4844  -17.2319   23.0940 H   0  0  0  0  0  0  0  0  0  0  0  0
    9.4627  -15.7655   21.9999 H   0  0  0  0  0  0  0  0  0  0  0  0
    8.6918  -12.5489   24.5994 H   0  0  0  0  0  0  0  0  0  0  0  0
    8.5171  -14.6964   26.7212 H   0  0  0  0  0  0  0  0  0  0  0  0
    9.9348  -14.0984   25.8840 H   0  0  0  0  0  0  0  0  0  0  0  0
    9.0517  -12.9922   28.2702 H   0  0  0  0  0  0  0  0  0  0  0  0
    9.9756  -12.0944   27.0733 H   0  0  0  0  0  0  0  0  0  0  0  0
    7.2316  -11.5600   27.8313 H   0  0  0  0  0  0  0  0  0  0  0  0
    8.2170  -10.7409   26.6248 H   0  0  0  0  0  0  0  0  0  0  0  0
    6.6813  -11.6276   25.1173 H   0  0  0  0  0  0  0  0  0  0  0  0
    6.2060  -12.9140   26.2243 H   0  0  0  0  0  0  0  0  0  0  0  0
   -5.4287  -19.8959   25.7355 H   0  0  0  0  0  0  0  0  0  0  0  0
   -5.4456  -22.1041   24.2557 H   0  0  0  0  0  0  0  0  0  0  0  0
   -3.2425  -22.1006   22.9813 H   0  0  0  0  0  0  0  0  0  0  0  0
  1  2  1  0
  2  3  1  0
  3  4  1  0
  4  5  1  0
  5  6  1  0
  6  7  2  0
  6  8  1  0
  8  9  2  0
  9 10  1  0
 10 11  2  0
 11 12  1  0
 12 13  1  0
 13 14  1  0
 14 15  1  0
 15 16  1  0
 16 17  1  0
  2 18  1  0
 18 19  2  0
 18 20  1  0
 20 21  1  0
 21 22  2  0
 22 23  1  0
 23 24  1  0
 12  8  1  0
 17 13  1  0
 24 20  2  0
  1 25  1  0
  1 26  1  0
  1 27  1  0
  3 28  1  0
  3 29  1  0
  4 30  1  0
  4 31  1  0
  5 32  1  0
  9 33  1  0
 10 34  1  0
 13 35  1  0
 14 36  1  0
 14 37  1  0
 15 38  1  0
 15 39  1  0
 16 40  1  0
 16 41  1  0
 17 42  1  0
 17 43  1  0
 21 44  1  0
 22 45  1  0
 23 46  1  0
M  END
>  <Energy>  (1013) 
895.17659444012145

>  <compound_id>  (1013) 
18708

>  <target_id>  (1013) 
1

>  <reference_id>  (1013) 
123

>  <inspiration_ids>  (1013) 
[123, 81]

>  <energy_score>  (1013) 
815.2857049398765

>  <distance_score>  (1013) 
14.313023242335262

>  <path>  (1013) 
/opt/xchem-fragalysis-2/maxwin/BulkDock/SCRATCH/511024/C18708-P123/C18708-P123.minimised.mol

>  <scratch_subdir>  (1013) 
/opt/xchem-fragalysis-2/maxwin/BulkDock/SCRATCH/511024/C18708-P123

>  <fragmenstein_runtime>  (1013) 
36.03568387031555

>  <fragmenstein_outcome>  (1013) 
too moved

>  <fragmenstein_mode>  (1013) 
expansion

>  <fragmenstein_error>  (1013) 


$$$$
C18708-P81
     RDKit          3D

 46 48  0  0  0  0  0  0  0  0999 V2000
   -3.0086  -15.6341   25.1757 C   0  0  0  0  0  0  0  0  0  0  0  0
   -2.3592  -16.4482   24.4958 N   0  0  0  0  0  0  0  0  0  0  0  0
   -1.1487  -14.9331   24.4140 C   0  0  0  0  0  0  0  0  0  0  0  0
    0.6805  -14.1210   23.9351 C   0  0  0  0  0  0  0  0  0  0  0  0
    2.4861  -13.5149   23.1986 N   0  0  0  0  0  0  0  0  0  0  0  0
    3.2343  -13.5779   21.3971 C   0  0  0  0  0  0  0  0  0  0  0  0
    2.5781  -14.1537   20.5415 O   0  0  0  0  0  0  0  0  0  0  0  0
    4.7450  -12.7820   20.5808 C   0  0  0  0  0  0  0  0  0  0  0  0
    4.9022  -12.9740   19.1051 C   0  0  0  0  0  0  0  0  0  0  0  0
    6.2037  -12.7460   18.6759 C   0  0  0  0  0  0  0  0  0  0  0  0
    6.9260  -12.3102   19.6808 N   0  0  0  0  0  0  0  0  0  0  0  0
    5.9983  -11.9105   20.5964 N   0  0  0  0  0  0  0  0  0  0  0  0
    6.4536  -10.7201   21.3533 C   0  0  0  0  0  0  0  0  0  0  0  0
    7.6921  -10.9549   22.2413 C   0  0  0  0  0  0  0  0  0  0  0  0
    8.9108  -10.7157   21.3607 C   0  0  0  0  0  0  0  0  0  0  0  0
    8.4289   -9.8671   20.1922 C   0  0  0  0  0  0  0  0  0  0  0  0
    6.9386   -9.5970   20.4202 C   0  0  0  0  0  0  0  0  0  0  0  0
   -2.2482  -18.1270   25.3659 C   0  0  0  0  0  0  0  0  0  0  0  0
   -1.3152  -18.3692   26.1259 O   0  0  0  0  0  0  0  0  0  0  0  0
   -3.5520  -19.6441   24.9128 C   0  0  0  0  0  0  0  0  0  0  0  0
   -5.1229  -20.2727   25.1533 C   0  0  0  0  0  0  0  0  0  0  0  0
   -5.3481  -21.4559   24.4963 C   0  0  0  0  0  0  0  0  0  0  0  0
   -4.2680  -21.6449   23.7013 N   0  0  0  0  0  0  0  0  0  0  0  0
   -3.3303  -20.6025   23.6922 N   0  0  0  0  0  0  0  0  0  0  0  0
   -3.0321  -16.4782   25.8610 H   0  0  0  0  0  0  0  0  0  0  0  0
   -2.5896  -14.8487   25.8189 H   0  0  0  0  0  0  0  0  0  0  0  0
   -3.7912  -15.4439   24.4588 H   0  0  0  0  0  0  0  0  0  0  0  0
   -1.3698  -14.8713   23.3668 H   0  0  0  0  0  0  0  0  0  0  0  0
   -1.5425  -14.0419   24.9494 H   0  0  0  0  0  0  0  0  0  0  0  0
   -0.0130  -13.7345   23.1546 H   0  0  0  0  0  0  0  0  0  0  0  0
    0.8742  -13.7171   24.9878 H   0  0  0  0  0  0  0  0  0  0  0  0
    3.0870  -12.9417   23.7742 H   0  0  0  0  0  0  0  0  0  0  0  0
    4.1399  -13.4210   18.4777 H   0  0  0  0  0  0  0  0  0  0  0  0
    6.6547  -12.9393   17.7125 H   0  0  0  0  0  0  0  0  0  0  0  0
    5.6362  -10.3506   21.9751 H   0  0  0  0  0  0  0  0  0  0  0  0
    7.7368  -11.9410   22.7086 H   0  0  0  0  0  0  0  0  0  0  0  0
    7.6916  -10.2131   23.0503 H   0  0  0  0  0  0  0  0  0  0  0  0
    9.3207  -11.6643   20.9965 H   0  0  0  0  0  0  0  0  0  0  0  0
    9.7083  -10.2163   21.9210 H   0  0  0  0  0  0  0  0  0  0  0  0
    8.5901  -10.3949   19.2459 H   0  0  0  0  0  0  0  0  0  0  0  0
    9.0099   -8.9495   20.1241 H   0  0  0  0  0  0  0  0  0  0  0  0
    6.3890   -9.5404   19.4747 H   0  0  0  0  0  0  0  0  0  0  0  0
    6.8031   -8.6351   20.9237 H   0  0  0  0  0  0  0  0  0  0  0  0
   -5.8170  -19.9214   25.8866 H   0  0  0  0  0  0  0  0  0  0  0  0
   -6.1827  -22.1428   24.4959 H   0  0  0  0  0  0  0  0  0  0  0  0
   -4.1341  -22.3659   22.9993 H   0  0  0  0  0  0  0  0  0  0  0  0
  1  2  1  0
  2  3  1  0
  3  4  1  0
  4  5  1  0
  5  6  1  0
  6  7  2  0
  6  8  1  0
  8  9  2  0
  9 10  1  0
 10 11  2  0
 11 12  1  0
 12 13  1  0
 13 14  1  0
 14 15  1  0
 15 16  1  0
 16 17  1  0
  2 18  1  0
 18 19  2  0
 18 20  1  0
 20 21  1  0
 21 22  2  0
 22 23  1  0
 23 24  1  0
 12  8  1  0
 17 13  1  0
 24 20  2  0
  1 25  1  0
  1 26  1  0
  1 27  1  0
  3 28  1  0
  3 29  1  0
  4 30  1  0
  4 31  1  0
  5 32  1  0
  9 33  1  0
 10 34  1  0
 13 35  1  0
 14 36  1  0
 14 37  1  0
 15 38  1  0
 15 39  1  0
 16 40  1  0
 16 41  1  0
 17 42  1  0
 17 43  1  0
 21 44  1  0
 22 45  1  0
 23 46  1  0
M  END
>  <Energy>  (1014) 
964.80696702663658

>  <compound_id>  (1014) 
18708

>  <target_id>  (1014) 
1

>  <reference_id>  (1014) 
81

>  <inspiration_ids>  (1014) 
[123, 81]

>  <energy_score>  (1014) 
884.916077526381

>  <distance_score>  (1014) 
12.657242652520418

>  <path>  (1014) 
/opt/xchem-fragalysis-2/maxwin/BulkDock/SCRATCH/511024/C18708-P81/C18708-P81.minimised.mol

>  <scratch_subdir>  (1014) 
/opt/xchem-fragalysis-2/maxwin/BulkDock/SCRATCH/511024/C18708-P81

>  <fragmenstein_runtime>  (1014) 
43.942708253860474

>  <fragmenstein_outcome>  (1014) 
too moved

>  <fragmenstein_mode>  (1014) 
expansion

>  <fragmenstein_error>  (1014) 


$$$$
C54750-P101
     RDKit          3D

 26 28  0  0  0  0  0  0  0  0999 V2000
    9.1354  -12.2489   24.3810 C   0  0  0  0  0  0  0  0  0  0  0  0
    9.1551  -10.8662   24.4185 C   0  0  0  0  0  0  0  0  0  0  0  0
    8.4084  -10.2764   25.4157 C   0  0  0  0  0  0  0  0  0  0  0  0
    7.5914  -11.0354   26.3209 C   0  0  0  0  0  0  0  0  0  0  0  0
    7.4255  -12.4310   26.2140 C   0  0  0  0  0  0  0  0  0  0  0  0
    6.4242  -13.3039   26.9861 C   0  0  0  0  0  0  0  0  0  0  0  0
    5.8740  -13.0848   28.1782 N   0  0  0  0  0  0  0  0  0  0  0  0
    5.0202  -14.1431   28.4548 C   0  0  0  0  0  0  0  0  0  0  0  0
    5.0122  -15.0358   27.4187 C   0  0  0  0  0  0  0  0  0  0  0  0
    5.8746  -14.4940   26.4992 N   0  0  0  0  0  0  0  0  0  0  0  0
    8.3048  -13.0005   25.2663 C   0  0  0  0  0  0  0  0  0  0  0  0
    7.0221  -10.0926   27.3480 C   0  0  0  0  0  0  0  0  0  0  0  0
    7.8912   -8.8263   27.1495 C   0  0  0  0  0  0  0  0  0  0  0  0
    8.3417   -8.8060   25.6917 C   0  0  0  0  0  0  0  0  0  0  0  0
    9.7631  -12.7790   23.6684 H   0  0  0  0  0  0  0  0  0  0  0  0
    9.7720  -10.2855   23.7438 H   0  0  0  0  0  0  0  0  0  0  0  0
    4.4638  -14.1827   29.3816 H   0  0  0  0  0  0  0  0  0  0  0  0
    4.4841  -15.9607   27.2441 H   0  0  0  0  0  0  0  0  0  0  0  0
    6.0592  -14.8764   25.5891 H   0  0  0  0  0  0  0  0  0  0  0  0
    8.3813  -14.0841   25.2073 H   0  0  0  0  0  0  0  0  0  0  0  0
    7.1396  -10.4788   28.3649 H   0  0  0  0  0  0  0  0  0  0  0  0
    5.9708   -9.8684   27.1637 H   0  0  0  0  0  0  0  0  0  0  0  0
    8.7741   -8.8996   27.8002 H   0  0  0  0  0  0  0  0  0  0  0  0
    7.3590   -7.9137   27.4362 H   0  0  0  0  0  0  0  0  0  0  0  0
    9.3094   -8.3093   25.5791 H   0  0  0  0  0  0  0  0  0  0  0  0
    7.5962   -8.3284   25.0504 H   0  0  0  0  0  0  0  0  0  0  0  0
  1  2  2  0
  2  3  1  0
  3  4  2  0
  4  5  1  0
  5  6  1  0
  6  7  2  0
  7  8  1  0
  8  9  2  0
  9 10  1  0
  5 11  2  0
  4 12  1  0
 12 13  1  0
 13 14  1  0
 11  1  1  0
 14  3  1  0
 10  6  1  0
  1 15  1  0
  2 16  1  0
  8 17  1  0
  9 18  1  0
 10 19  1  0
 11 20  1  0
 12 21  1  0
 12 22  1  0
 13 23  1  0
 13 24  1  0
 14 25  1  0
 14 26  1  0
M  END
>  <Energy>  (1015) 
36.868307913486134

>  <compound_id>  (1015) 
54750

>  <target_id>  (1015) 
1

>  <reference_id>  (1015) 
101

>  <inspiration_ids>  (1015) 
[101, 20]

>  <energy_score>  (1015) 
-6.962433057627663

>  <distance_score>  (1015) 
16.603676853988247

>  <path>  (1015) 
/opt/xchem-fragalysis-2/maxwin/BulkDock/SCRATCH/511024/C54750-P101/C54750-P101.minimised.mol

>  <scratch_subdir>  (1015) 
/opt/xchem-fragalysis-2/maxwin/BulkDock/SCRATCH/511024/C54750-P101

>  <fragmenstein_runtime>  (1015) 
10.01929259300232

>  <fragmenstein_outcome>  (1015) 
too moved

>  <fragmenstein_mode>  (1015) 
expansion

>  <fragmenstein_error>  (1015) 


$$$$
C54750-P20
     RDKit          3D

 26 28  0  0  0  0  0  0  0  0999 V2000
    0.7457   -6.0467   22.1899 C   0  0  0  0  0  0  0  0  0  0  0  0
    1.3143   -5.5612   21.0207 C   0  0  0  0  0  0  0  0  0  0  0  0
    0.8822   -6.1284   19.8408 C   0  0  0  0  0  0  0  0  0  0  0  0
   -0.1247   -7.1523   19.8122 C   0  0  0  0  0  0  0  0  0  0  0  0
   -0.7317   -7.6684   20.9876 C   0  0  0  0  0  0  0  0  0  0  0  0
   -1.8281   -8.7328   21.1113 C   0  0  0  0  0  0  0  0  0  0  0  0
   -2.7594   -8.8453   22.0664 N   0  0  0  0  0  0  0  0  0  0  0  0
   -3.6303   -9.8473   21.6816 C   0  0  0  0  0  0  0  0  0  0  0  0
   -3.1389  -10.4972   20.5823 C   0  0  0  0  0  0  0  0  0  0  0  0
   -2.0032   -9.8000   20.2483 N   0  0  0  0  0  0  0  0  0  0  0  0
   -0.2471   -7.0666   22.1675 C   0  0  0  0  0  0  0  0  0  0  0  0
   -0.3425   -7.5187   18.3711 C   0  0  0  0  0  0  0  0  0  0  0  0
    0.3122   -6.3491   17.6024 C   0  0  0  0  0  0  0  0  0  0  0  0
    1.4335   -5.8113   18.4812 C   0  0  0  0  0  0  0  0  0  0  0  0
    1.0599   -5.6440   23.1502 H   0  0  0  0  0  0  0  0  0  0  0  0
    2.0796   -4.7942   21.0435 H   0  0  0  0  0  0  0  0  0  0  0  0
   -4.5286  -10.0605   22.2463 H   0  0  0  0  0  0  0  0  0  0  0  0
   -3.4776  -11.3466   20.0080 H   0  0  0  0  0  0  0  0  0  0  0  0
   -1.3365  -10.0269   19.5187 H   0  0  0  0  0  0  0  0  0  0  0  0
   -0.6571   -7.3932   23.1228 H   0  0  0  0  0  0  0  0  0  0  0  0
   -1.3998   -7.6221   18.1146 H   0  0  0  0  0  0  0  0  0  0  0  0
    0.2019   -8.4288   18.1337 H   0  0  0  0  0  0  0  0  0  0  0  0
    0.6628   -6.6507   16.6102 H   0  0  0  0  0  0  0  0  0  0  0  0
   -0.4397   -5.5618   17.4522 H   0  0  0  0  0  0  0  0  0  0  0  0
    1.5814   -4.7384   18.3289 H   0  0  0  0  0  0  0  0  0  0  0  0
    2.3704   -6.3460   18.3042 H   0  0  0  0  0  0  0  0  0  0  0  0
  1  2  2  0
  2  3  1  0
  3  4  2  0
  4  5  1  0
  5  6  1  0
  6  7  2  0
  7  8  1  0
  8  9  2  0
  9 10  1  0
  5 11  2  0
  4 12  1  0
 12 13  1  0
 13 14  1  0
 11  1  1  0
 14  3  1  0
 10  6  1  0
  1 15  1  0
  2 16  1  0
  8 17  1  0
  9 18  1  0
 10 19  1  0
 11 20  1  0
 12 21  1  0
 12 22  1  0
 13 23  1  0
 13 24  1  0
 14 25  1  0
 14 26  1  0
M  END
>  <Energy>  (1016) 
35.423028905738335

>  <compound_id>  (1016) 
54750

>  <target_id>  (1016) 
1

>  <reference_id>  (1016) 
20

>  <inspiration_ids>  (1016) 
[101, 20]

>  <energy_score>  (1016) 
-8.407712065375279

>  <distance_score>  (1016) 
16.37380251188689

>  <path>  (1016) 
/opt/xchem-fragalysis-2/maxwin/BulkDock/SCRATCH/511024/C54750-P20/C54750-P20.minimised.mol

>  <scratch_subdir>  (1016) 
/opt/xchem-fragalysis-2/maxwin/BulkDock/SCRATCH/511024/C54750-P20

>  <fragmenstein_runtime>  (1016) 
10.055358648300171

>  <fragmenstein_outcome>  (1016) 
too moved

>  <fragmenstein_mode>  (1016) 
expansion

>  <fragmenstein_error>  (1016) 


$$$$
C54754-P101
     RDKit          3D

 26 28  0  0  0  0  0  0  0  0999 V2000
    6.3970  -18.1319   19.1164 C   0  0  0  0  0  0  0  0  0  0  0  0
    5.5196  -17.5671   18.2313 C   0  0  0  0  0  0  0  0  0  0  0  0
    5.9277  -16.2634   18.1192 N   0  0  0  0  0  0  0  0  0  0  0  0
    7.1812  -16.1365   18.6993 C   0  0  0  0  0  0  0  0  0  0  0  0
    8.0988  -14.9331   18.5424 C   0  0  0  0  0  0  0  0  0  0  0  0
    7.7827  -13.6337   19.0431 C   0  0  0  0  0  0  0  0  0  0  0  0
    8.6035  -12.4998   18.8579 C   0  0  0  0  0  0  0  0  0  0  0  0
    9.7808  -12.6576   18.1638 C   0  0  0  0  0  0  0  0  0  0  0  0
   10.1369  -13.9077   17.6585 C   0  0  0  0  0  0  0  0  0  0  0  0
    9.3183  -15.0367   17.8419 C   0  0  0  0  0  0  0  0  0  0  0  0
   11.4331  -13.8065   16.9042 C   0  0  0  0  0  0  0  0  0  0  0  0
   12.0042  -12.4811   17.4258 C   0  0  0  0  0  0  0  0  0  0  0  0
   10.7979  -11.6267   17.8187 C   0  0  0  0  0  0  0  0  0  0  0  0
    7.4293  -17.2555   19.3769 N   0  0  0  0  0  0  0  0  0  0  0  0
    6.3920  -19.1317   19.5287 H   0  0  0  0  0  0  0  0  0  0  0  0
    4.6506  -17.9328   17.7059 H   0  0  0  0  0  0  0  0  0  0  0  0
    5.4475  -15.5502   17.5926 H   0  0  0  0  0  0  0  0  0  0  0  0
    6.8370  -13.4641   19.5577 H   0  0  0  0  0  0  0  0  0  0  0  0
    8.3020  -11.5354   19.2515 H   0  0  0  0  0  0  0  0  0  0  0  0
    9.6228  -15.9987   17.4355 H   0  0  0  0  0  0  0  0  0  0  0  0
   12.1040  -14.6426   17.1205 H   0  0  0  0  0  0  0  0  0  0  0  0
   11.2341  -13.7553   15.8287 H   0  0  0  0  0  0  0  0  0  0  0  0
   12.6150  -12.6776   18.3177 H   0  0  0  0  0  0  0  0  0  0  0  0
   12.6511  -11.9919   16.6922 H   0  0  0  0  0  0  0  0  0  0  0  0
   10.4521  -11.0252   16.9727 H   0  0  0  0  0  0  0  0  0  0  0  0
   11.0325  -11.0000   18.6822 H   0  0  0  0  0  0  0  0  0  0  0  0
  1  2  2  0
  2  3  1  0
  3  4  1  0
  4  5  1  0
  5  6  2  0
  6  7  1  0
  7  8  2  0
  8  9  1  0
  9 10  2  0
  9 11  1  0
 11 12  1  0
 12 13  1  0
  4 14  2  0
 14  1  1  0
 10  5  1  0
 13  8  1  0
  1 15  1  0
  2 16  1  0
  3 17  1  0
  6 18  1  0
  7 19  1  0
 10 20  1  0
 11 21  1  0
 11 22  1  0
 12 23  1  0
 12 24  1  0
 13 25  1  0
 13 26  1  0
M  END
>  <Energy>  (1017) 
35.22229070509043

>  <compound_id>  (1017) 
54754

>  <target_id>  (1017) 
1

>  <reference_id>  (1017) 
101

>  <inspiration_ids>  (1017) 
[101, 20]

>  <energy_score>  (1017) 
-3.628497288632218

>  <distance_score>  (1017) 
16.520377608838583

>  <path>  (1017) 
/opt/xchem-fragalysis-2/maxwin/BulkDock/SCRATCH/511024/C54754-P101/C54754-P101.minimised.mol

>  <scratch_subdir>  (1017) 
/opt/xchem-fragalysis-2/maxwin/BulkDock/SCRATCH/511024/C54754-P101

>  <fragmenstein_runtime>  (1017) 
7.279155492782593

>  <fragmenstein_outcome>  (1017) 
too moved

>  <fragmenstein_mode>  (1017) 
expansion

>  <fragmenstein_error>  (1017) 


$$$$
C54754-P20
     RDKit          3D

 26 28  0  0  0  0  0  0  0  0999 V2000
   -1.1717   -8.1678   21.0617 C   0  0  0  0  0  0  0  0  0  0  0  0
   -1.4855   -9.4259   21.4902 C   0  0  0  0  0  0  0  0  0  0  0  0
   -0.2670   -9.9716   21.7685 N   0  0  0  0  0  0  0  0  0  0  0  0
    0.7526   -9.1449   21.3345 C   0  0  0  0  0  0  0  0  0  0  0  0
    2.2913   -9.5491   21.0673 C   0  0  0  0  0  0  0  0  0  0  0  0
    3.7534  -10.8279   21.9869 C   0  0  0  0  0  0  0  0  0  0  0  0
    5.2508  -11.3181   20.8751 C   0  0  0  0  0  0  0  0  0  0  0  0
    5.7072  -10.5645   19.2212 C   0  0  0  0  0  0  0  0  0  0  0  0
    4.4315   -9.2763   18.4604 C   0  0  0  0  0  0  0  0  0  0  0  0
    2.5930   -9.4337   19.0416 C   0  0  0  0  0  0  0  0  0  0  0  0
    5.0369   -8.1140   17.7749 C   0  0  0  0  0  0  0  0  0  0  0  0
    6.3284   -8.0105   18.5958 C   0  0  0  0  0  0  0  0  0  0  0  0
    7.1483   -9.6543   18.8148 C   0  0  0  0  0  0  0  0  0  0  0  0
    0.1935   -7.9948   20.9896 N   0  0  0  0  0  0  0  0  0  0  0  0
   -1.8440   -7.3774   20.7566 H   0  0  0  0  0  0  0  0  0  0  0  0
   -2.4293   -9.9330   21.5883 H   0  0  0  0  0  0  0  0  0  0  0  0
   -0.0638  -10.8250   22.2467 H   0  0  0  0  0  0  0  0  0  0  0  0
    3.4214  -11.6801   22.6397 H   0  0  0  0  0  0  0  0  0  0  0  0
    5.3947  -12.4125   20.7613 H   0  0  0  0  0  0  0  0  0  0  0  0
    1.8276   -8.8973   18.4350 H   0  0  0  0  0  0  0  0  0  0  0  0
    5.1926   -8.2348   16.7065 H   0  0  0  0  0  0  0  0  0  0  0  0
    4.4299   -7.2080   17.8633 H   0  0  0  0  0  0  0  0  0  0  0  0
    6.8332   -7.1558   18.1714 H   0  0  0  0  0  0  0  0  0  0  0  0
    6.1846   -7.5506   19.5786 H   0  0  0  0  0  0  0  0  0  0  0  0
    7.6076  -10.1696   17.9705 H   0  0  0  0  0  0  0  0  0  0  0  0
    7.8542   -9.6324   19.6499 H   0  0  0  0  0  0  0  0  0  0  0  0
  1  2  2  0
  2  3  1  0
  3  4  1  0
  4  5  1  0
  5  6  2  0
  6  7  1  0
  7  8  2  0
  8  9  1  0
  9 10  2  0
  9 11  1  0
 11 12  1  0
 12 13  1  0
  4 14  2  0
 14  1  1  0
 10  5  1  0
 13  8  1  0
  1 15  1  0
  2 16  1  0
  3 17  1  0
  6 18  1  0
  7 19  1  0
 10 20  1  0
 11 21  1  0
 11 22  1  0
 12 23  1  0
 12 24  1  0
 13 25  1  0
 13 26  1  0
M  END
>  <Energy>  (1018) 
793.76248909843468

>  <compound_id>  (1018) 
54754

>  <target_id>  (1018) 
1

>  <reference_id>  (1018) 
20

>  <inspiration_ids>  (1018) 
[101, 20]

>  <energy_score>  (1018) 
754.911701104706

>  <distance_score>  (1018) 
16.396831195457967

>  <path>  (1018) 
/opt/xchem-fragalysis-2/maxwin/BulkDock/SCRATCH/511024/C54754-P20/C54754-P20.minimised.mol

>  <scratch_subdir>  (1018) 
/opt/xchem-fragalysis-2/maxwin/BulkDock/SCRATCH/511024/C54754-P20

>  <fragmenstein_runtime>  (1018) 
7.9788596630096436

>  <fragmenstein_outcome>  (1018) 
too moved

>  <fragmenstein_mode>  (1018) 
expansion

>  <fragmenstein_error>  (1018) 


$$$$
C54756-P101
     RDKit          3D

 19 20  0  0  0  0  0  0  0  0999 V2000
    6.8934   -8.3215   14.1805 C   0  0  0  0  0  0  0  0  0  0  0  0
    6.5627   -9.4425   13.5077 C   0  0  0  0  0  0  0  0  0  0  0  0
    5.3054   -9.9312   13.7929 C   0  0  0  0  0  0  0  0  0  0  0  0
    4.4339   -9.2527   14.6907 C   0  0  0  0  0  0  0  0  0  0  0  0
    3.8758  -10.0010   15.7942 N   0  0  0  0  0  0  0  0  0  0  0  0
    3.6231  -11.3595   15.8416 C   0  0  0  0  0  0  0  0  0  0  0  0
    3.3675  -11.5247   17.1637 C   0  0  0  0  0  0  0  0  0  0  0  0
    2.7799  -10.3500   17.6632 N   0  0  0  0  0  0  0  0  0  0  0  0
    3.5569   -9.4731   17.1011 C   0  0  0  0  0  0  0  0  0  0  0  0
    4.6094   -7.9244   14.9671 C   0  0  0  0  0  0  0  0  0  0  0  0
    5.9010   -7.5595   14.8926 C   0  0  0  0  0  0  0  0  0  0  0  0
    7.9448   -8.0578   14.1693 H   0  0  0  0  0  0  0  0  0  0  0  0
    7.2771  -10.0131   12.9278 H   0  0  0  0  0  0  0  0  0  0  0  0
    5.0842  -10.9510   13.4836 H   0  0  0  0  0  0  0  0  0  0  0  0
    3.9214  -11.9334   14.9886 H   0  0  0  0  0  0  0  0  0  0  0  0
    3.5383  -12.3838   17.8079 H   0  0  0  0  0  0  0  0  0  0  0  0
    3.7424   -8.4538   17.3950 H   0  0  0  0  0  0  0  0  0  0  0  0
    3.9052   -7.3350   15.5439 H   0  0  0  0  0  0  0  0  0  0  0  0
    6.1043   -6.6650   15.4822 H   0  0  0  0  0  0  0  0  0  0  0  0
  1  2  2  0
  2  3  1  0
  3  4  2  0
  4  5  1  0
  5  6  1  0
  6  7  2  0
  7  8  1  0
  8  9  2  0
  4 10  1  0
 10 11  2  0
 11  1  1  0
  9  5  1  0
  1 12  1  0
  2 13  1  0
  3 14  1  0
  6 15  1  0
  7 16  1  0
  9 17  1  0
 10 18  1  0
 11 19  1  0
M  END
>  <Energy>  (1019) 
96.110007856759836

>  <compound_id>  (1019) 
54756

>  <target_id>  (1019) 
1

>  <reference_id>  (1019) 
101

>  <inspiration_ids>  (1019) 
[101, 20]

>  <energy_score>  (1019) 
50.875096197019104

>  <distance_score>  (1019) 
18.184748554740708

>  <path>  (1019) 
/opt/xchem-fragalysis-2/maxwin/BulkDock/SCRATCH/511024/C54756-P101/C54756-P101.minimised.mol

>  <scratch_subdir>  (1019) 
/opt/xchem-fragalysis-2/maxwin/BulkDock/SCRATCH/511024/C54756-P101

>  <fragmenstein_runtime>  (1019) 
5.425278902053833

>  <fragmenstein_outcome>  (1019) 
too moved

>  <fragmenstein_mode>  (1019) 
expansion

>  <fragmenstein_error>  (1019) 


$$$$
C54756-P20
     RDKit          3D

 19 20  0  0  0  0  0  0  0  0999 V2000
    6.8464  -17.5035   24.5110 C   0  0  0  0  0  0  0  0  0  0  0  0
    6.0633  -17.0604   25.5687 C   0  0  0  0  0  0  0  0  0  0  0  0
    4.8467  -17.7113   25.8807 C   0  0  0  0  0  0  0  0  0  0  0  0
    4.3442  -18.7838   25.1112 C   0  0  0  0  0  0  0  0  0  0  0  0
    3.0640  -19.4308   25.4248 N   0  0  0  0  0  0  0  0  0  0  0  0
    2.2006  -19.1538   26.4780 C   0  0  0  0  0  0  0  0  0  0  0  0
    1.0949  -19.9625   26.3235 C   0  0  0  0  0  0  0  0  0  0  0  0
    1.2331  -20.7584   25.2258 N   0  0  0  0  0  0  0  0  0  0  0  0
    2.4084  -20.4349   24.7183 C   0  0  0  0  0  0  0  0  0  0  0  0
    5.1282  -19.1694   24.0067 C   0  0  0  0  0  0  0  0  0  0  0  0
    6.3773  -18.5593   23.7312 C   0  0  0  0  0  0  0  0  0  0  0  0
    7.8014  -17.0349   24.2942 H   0  0  0  0  0  0  0  0  0  0  0  0
    6.3975  -16.2286   26.1848 H   0  0  0  0  0  0  0  0  0  0  0  0
    4.2975  -17.3398   26.7429 H   0  0  0  0  0  0  0  0  0  0  0  0
    2.4288  -18.4098   27.2248 H   0  0  0  0  0  0  0  0  0  0  0  0
    0.2139  -20.0088   26.9502 H   0  0  0  0  0  0  0  0  0  0  0  0
    2.8313  -20.8782   23.8280 H   0  0  0  0  0  0  0  0  0  0  0  0
    4.8118  -19.9722   23.3439 H   0  0  0  0  0  0  0  0  0  0  0  0
    6.9656  -18.9131   22.8860 H   0  0  0  0  0  0  0  0  0  0  0  0
  1  2  2  0
  2  3  1  0
  3  4  2  0
  4  5  1  0
  5  6  1  0
  6  7  2  0
  7  8  1  0
  8  9  2  0
  4 10  1  0
 10 11  2  0
 11  1  1  0
  9  5  1  0
  1 12  1  0
  2 13  1  0
  3 14  1  0
  6 15  1  0
  7 16  1  0
  9 17  1  0
 10 18  1  0
 11 19  1  0
M  END
>  <Energy>  (1020) 
39.964103634302568

>  <compound_id>  (1020) 
54756

>  <target_id>  (1020) 
1

>  <reference_id>  (1020) 
20

>  <inspiration_ids>  (1020) 
[101, 20]

>  <energy_score>  (1020) 
-18.07228360056436

>  <distance_score>  (1020) 
16.987129285250514

>  <path>  (1020) 
/opt/xchem-fragalysis-2/maxwin/BulkDock/SCRATCH/511024/C54756-P20/C54756-P20.minimised.mol

>  <scratch_subdir>  (1020) 
/opt/xchem-fragalysis-2/maxwin/BulkDock/SCRATCH/511024/C54756-P20

>  <fragmenstein_runtime>  (1020) 
8.321346998214722

>  <fragmenstein_outcome>  (1020) 
too moved

>  <fragmenstein_mode>  (1020) 
expansion

>  <fragmenstein_error>  (1020) 


$$$$
C54757-P101
     RDKit          3D

 19 20  0  0  0  0  0  0  0  0999 V2000
   -0.3675   -7.4029   19.5406 C   0  0  0  0  0  0  0  0  0  0  0  0
   -0.4358   -7.8012   20.8693 C   0  0  0  0  0  0  0  0  0  0  0  0
   -1.4520   -8.6894   21.3013 C   0  0  0  0  0  0  0  0  0  0  0  0
   -2.4227   -9.2337   20.4364 C   0  0  0  0  0  0  0  0  0  0  0  0
   -3.4910  -10.1872   20.9402 C   0  0  0  0  0  0  0  0  0  0  0  0
   -3.9565  -10.2984   22.1854 N   0  0  0  0  0  0  0  0  0  0  0  0
   -5.0134  -11.1918   22.1522 C   0  0  0  0  0  0  0  0  0  0  0  0
   -5.1368  -11.7321   20.8987 C   0  0  0  0  0  0  0  0  0  0  0  0
   -4.1625  -11.1130   20.1520 N   0  0  0  0  0  0  0  0  0  0  0  0
   -2.3230   -8.8062   19.0958 C   0  0  0  0  0  0  0  0  0  0  0  0
   -1.3178   -7.9031   18.6555 C   0  0  0  0  0  0  0  0  0  0  0  0
    0.4130   -6.7317   19.2002 H   0  0  0  0  0  0  0  0  0  0  0  0
    0.2993   -7.4475   21.5871 H   0  0  0  0  0  0  0  0  0  0  0  0
   -1.4687   -8.9701   22.3468 H   0  0  0  0  0  0  0  0  0  0  0  0
   -5.5964  -11.4065   23.0386 H   0  0  0  0  0  0  0  0  0  0  0  0
   -5.8069  -12.4662   20.4749 H   0  0  0  0  0  0  0  0  0  0  0  0
   -3.9737  -11.2684   19.1728 H   0  0  0  0  0  0  0  0  0  0  0  0
   -3.0401   -9.1585   18.3596 H   0  0  0  0  0  0  0  0  0  0  0  0
   -1.2847   -7.6096   17.6098 H   0  0  0  0  0  0  0  0  0  0  0  0
  1  2  2  0
  2  3  1  0
  3  4  2  0
  4  5  1  0
  5  6  2  0
  6  7  1  0
  7  8  2  0
  8  9  1  0
  4 10  1  0
 10 11  2  0
 11  1  1  0
  9  5  1  0
  1 12  1  0
  2 13  1  0
  3 14  1  0
  7 15  1  0
  8 16  1  0
  9 17  1  0
 10 18  1  0
 11 19  1  0
M  END
>  <Energy>  (1021) 
24.432419353763713

>  <compound_id>  (1021) 
54757

>  <target_id>  (1021) 
1

>  <reference_id>  (1021) 
101

>  <inspiration_ids>  (1021) 
[101, 20]

>  <energy_score>  (1021) 
-2.612335166380376

>  <distance_score>  (1021) 
16.492217816378968

>  <path>  (1021) 
/opt/xchem-fragalysis-2/maxwin/BulkDock/SCRATCH/511024/C54757-P101/C54757-P101.minimised.mol

>  <scratch_subdir>  (1021) 
/opt/xchem-fragalysis-2/maxwin/BulkDock/SCRATCH/511024/C54757-P101

>  <fragmenstein_runtime>  (1021) 
8.5116708278656

>  <fragmenstein_outcome>  (1021) 
too moved

>  <fragmenstein_mode>  (1021) 
expansion

>  <fragmenstein_error>  (1021) 


$$$$
C54757-P20
     RDKit          3D

 19 20  0  0  0  0  0  0  0  0999 V2000
   -1.7801   -9.3186   18.8229 C   0  0  0  0  0  0  0  0  0  0  0  0
   -2.2244  -10.3503   17.9973 C   0  0  0  0  0  0  0  0  0  0  0  0
   -2.8380  -11.6650   18.4862 C   0  0  0  0  0  0  0  0  0  0  0  0
   -3.2277  -12.0068   19.8383 C   0  0  0  0  0  0  0  0  0  0  0  0
   -4.1934  -13.4322   20.4651 C   0  0  0  0  0  0  0  0  0  0  0  0
   -3.8340  -14.7377   20.6579 N   0  0  0  0  0  0  0  0  0  0  0  0
   -4.8486  -15.4810   21.3345 C   0  0  0  0  0  0  0  0  0  0  0  0
   -5.8827  -14.6460   21.6326 C   0  0  0  0  0  0  0  0  0  0  0  0
   -5.5008  -13.4091   21.0889 N   0  0  0  0  0  0  0  0  0  0  0  0
   -2.6844  -10.8738   20.5933 C   0  0  0  0  0  0  0  0  0  0  0  0
   -1.9491   -9.6224   20.1589 C   0  0  0  0  0  0  0  0  0  0  0  0
   -1.3297   -8.4061   18.4646 H   0  0  0  0  0  0  0  0  0  0  0  0
   -2.2204  -10.1911   16.9224 H   0  0  0  0  0  0  0  0  0  0  0  0
   -3.1324  -12.3722   17.7057 H   0  0  0  0  0  0  0  0  0  0  0  0
   -4.7126  -16.5361   21.5362 H   0  0  0  0  0  0  0  0  0  0  0  0
   -6.8326  -14.7729   22.1300 H   0  0  0  0  0  0  0  0  0  0  0  0
   -6.0508  -12.5654   21.1295 H   0  0  0  0  0  0  0  0  0  0  0  0
   -2.9985  -10.8435   21.6225 H   0  0  0  0  0  0  0  0  0  0  0  0
   -1.6384   -8.9166   20.9251 H   0  0  0  0  0  0  0  0  0  0  0  0
  1  2  2  0
  2  3  1  0
  3  4  2  0
  4  5  1  0
  5  6  2  0
  6  7  1  0
  7  8  2  0
  8  9  1  0
  4 10  1  0
 10 11  2  0
 11  1  1  0
  9  5  1  0
  1 12  1  0
  2 13  1  0
  3 14  1  0
  7 15  1  0
  8 16  1  0
  9 17  1  0
 10 18  1  0
 11 19  1  0
M  END
>  <Energy>  (1022) 
102.4153207110612

>  <compound_id>  (1022) 
54757

>  <target_id>  (1022) 
1

>  <reference_id>  (1022) 
20

>  <inspiration_ids>  (1022) 
[101, 20]

>  <energy_score>  (1022) 
75.36788900121144

>  <distance_score>  (1022) 
15.875064040646372

>  <path>  (1022) 
/opt/xchem-fragalysis-2/maxwin/BulkDock/SCRATCH/511024/C54757-P20/C54757-P20.minimised.mol

>  <scratch_subdir>  (1022) 
/opt/xchem-fragalysis-2/maxwin/BulkDock/SCRATCH/511024/C54757-P20

>  <fragmenstein_runtime>  (1022) 
5.1852123737335205

>  <fragmenstein_outcome>  (1022) 
too moved

>  <fragmenstein_mode>  (1022) 
expansion

>  <fragmenstein_error>  (1022) 


$$$$
C54758-P101
     RDKit          3D

 24 26  0  0  0  0  0  0  0  0999 V2000
    2.3291  -10.8522   12.2834 C   0  0  0  0  0  0  0  0  0  0  0  0
    3.6547  -11.0386   12.2562 C   0  0  0  0  0  0  0  0  0  0  0  0
    3.8713  -12.4741   12.2912 C   0  0  0  0  0  0  0  0  0  0  0  0
    5.0805  -13.1208   12.1625 C   0  0  0  0  0  0  0  0  0  0  0  0
    5.0377  -14.5090   12.1499 C   0  0  0  0  0  0  0  0  0  0  0  0
    3.8135  -15.2170   12.3431 C   0  0  0  0  0  0  0  0  0  0  0  0
    2.5607  -14.5881   12.5684 C   0  0  0  0  0  0  0  0  0  0  0  0
    1.3998  -15.4564   13.0844 C   0  0  0  0  0  0  0  0  0  0  0  0
    1.3396  -16.7906   13.0588 N   0  0  0  0  0  0  0  0  0  0  0  0
    0.1905  -17.1815   13.7201 C   0  0  0  0  0  0  0  0  0  0  0  0
   -0.4857  -16.0835   14.1708 C   0  0  0  0  0  0  0  0  0  0  0  0
    0.3143  -15.0176   13.8265 N   0  0  0  0  0  0  0  0  0  0  0  0
    2.6301  -13.1823   12.4482 C   0  0  0  0  0  0  0  0  0  0  0  0
    1.5387  -12.1535   12.3739 C   0  0  0  0  0  0  0  0  0  0  0  0
    1.8505   -9.8838   12.2505 H   0  0  0  0  0  0  0  0  0  0  0  0
    4.4289  -10.2920   12.1961 H   0  0  0  0  0  0  0  0  0  0  0  0
    6.0109  -12.5813   12.0335 H   0  0  0  0  0  0  0  0  0  0  0  0
    5.9552  -15.0773   12.0116 H   0  0  0  0  0  0  0  0  0  0  0  0
    3.8581  -16.3076   12.3858 H   0  0  0  0  0  0  0  0  0  0  0  0
   -0.0722  -18.2258   13.8203 H   0  0  0  0  0  0  0  0  0  0  0  0
   -1.3985  -15.9506   14.7311 H   0  0  0  0  0  0  0  0  0  0  0  0
    0.1933  -14.0738   14.1727 H   0  0  0  0  0  0  0  0  0  0  0  0
    0.8950  -12.1646   13.2491 H   0  0  0  0  0  0  0  0  0  0  0  0
    0.9385  -12.2910   11.4690 H   0  0  0  0  0  0  0  0  0  0  0  0
  1  2  2  0
  2  3  1  0
  3  4  2  0
  4  5  1  0
  5  6  2  0
  6  7  1  0
  7  8  1  0
  8  9  2  0
  9 10  1  0
 10 11  2  0
 11 12  1  0
  7 13  2  0
 13 14  1  0
 14  1  1  0
 13  3  1  0
 12  8  1  0
  1 15  1  0
  2 16  1  0
  4 17  1  0
  5 18  1  0
  6 19  1  0
 10 20  1  0
 11 21  1  0
 12 22  1  0
 14 23  1  0
 14 24  1  0
M  END
>  <Energy>  (1023) 
38.564647381047692

>  <compound_id>  (1023) 
54758

>  <target_id>  (1023) 
1

>  <reference_id>  (1023) 
101

>  <inspiration_ids>  (1023) 
[101, 20]

>  <energy_score>  (1023) 
-0.15049676562841796

>  <distance_score>  (1023) 
17.40888936022851

>  <path>  (1023) 
/opt/xchem-fragalysis-2/maxwin/BulkDock/SCRATCH/511024/C54758-P101/C54758-P101.minimised.mol

>  <scratch_subdir>  (1023) 
/opt/xchem-fragalysis-2/maxwin/BulkDock/SCRATCH/511024/C54758-P101

>  <fragmenstein_runtime>  (1023) 
11.305529832839966

>  <fragmenstein_outcome>  (1023) 
too moved

>  <fragmenstein_mode>  (1023) 
expansion

>  <fragmenstein_error>  (1023) 


$$$$
C54758-P20
     RDKit          3D

 24 26  0  0  0  0  0  0  0  0999 V2000
    1.3976   -5.4724   22.4789 C   0  0  0  0  0  0  0  0  0  0  0  0
    1.8194   -5.0974   21.2627 C   0  0  0  0  0  0  0  0  0  0  0  0
    1.0696   -5.8831   20.2938 C   0  0  0  0  0  0  0  0  0  0  0  0
    1.2203   -5.8742   18.9211 C   0  0  0  0  0  0  0  0  0  0  0  0
    0.4226   -6.7567   18.2050 C   0  0  0  0  0  0  0  0  0  0  0  0
   -0.5088   -7.6084   18.8684 C   0  0  0  0  0  0  0  0  0  0  0  0
   -0.6876   -7.6537   20.2772 C   0  0  0  0  0  0  0  0  0  0  0  0
   -1.7206   -8.5950   20.8950 C   0  0  0  0  0  0  0  0  0  0  0  0
   -2.5322   -8.4033   21.9327 N   0  0  0  0  0  0  0  0  0  0  0  0
   -3.4845   -9.4062   21.8980 C   0  0  0  0  0  0  0  0  0  0  0  0
   -3.1784  -10.3243   20.9275 C   0  0  0  0  0  0  0  0  0  0  0  0
   -2.0293   -9.8411   20.3577 N   0  0  0  0  0  0  0  0  0  0  0  0
    0.1469   -6.7558   20.9612 C   0  0  0  0  0  0  0  0  0  0  0  0
    0.2941   -6.5245   22.4378 C   0  0  0  0  0  0  0  0  0  0  0  0
    1.7759   -5.0724   23.4088 H   0  0  0  0  0  0  0  0  0  0  0  0
    2.5782   -4.3724   21.0221 H   0  0  0  0  0  0  0  0  0  0  0  0
    1.9292   -5.2234   18.4249 H   0  0  0  0  0  0  0  0  0  0  0  0
    0.4975   -6.7980   17.1211 H   0  0  0  0  0  0  0  0  0  0  0  0
   -1.1176   -8.2565   18.2400 H   0  0  0  0  0  0  0  0  0  0  0  0
   -4.3207   -9.4054   22.5855 H   0  0  0  0  0  0  0  0  0  0  0  0
   -3.6461  -11.2389   20.5947 H   0  0  0  0  0  0  0  0  0  0  0  0
   -1.4668  -10.2681   19.6299 H   0  0  0  0  0  0  0  0  0  0  0  0
   -0.6284   -6.1322   22.8749 H   0  0  0  0  0  0  0  0  0  0  0  0
    0.6134   -7.4333   22.9527 H   0  0  0  0  0  0  0  0  0  0  0  0
  1  2  2  0
  2  3  1  0
  3  4  2  0
  4  5  1  0
  5  6  2  0
  6  7  1  0
  7  8  1  0
  8  9  2  0
  9 10  1  0
 10 11  2  0
 11 12  1  0
  7 13  2  0
 13 14  1  0
 14  1  1  0
 13  3  1  0
 12  8  1  0
  1 15  1  0
  2 16  1  0
  4 17  1  0
  5 18  1  0
  6 19  1  0
 10 20  1  0
 11 21  1  0
 12 22  1  0
 14 23  1  0
 14 24  1  0
M  END
>  <Energy>  (1024) 
35.386580639230303

>  <compound_id>  (1024) 
54758

>  <target_id>  (1024) 
1

>  <reference_id>  (1024) 
20

>  <inspiration_ids>  (1024) 
[101, 20]

>  <energy_score>  (1024) 
-3.328563507446489

>  <distance_score>  (1024) 
16.292236893934014

>  <path>  (1024) 
/opt/xchem-fragalysis-2/maxwin/BulkDock/SCRATCH/511024/C54758-P20/C54758-P20.minimised.mol

>  <scratch_subdir>  (1024) 
/opt/xchem-fragalysis-2/maxwin/BulkDock/SCRATCH/511024/C54758-P20

>  <fragmenstein_runtime>  (1024) 
8.956883192062378

>  <fragmenstein_outcome>  (1024) 
too moved

>  <fragmenstein_mode>  (1024) 
expansion

>  <fragmenstein_error>  (1024) 


$$$$
C54759-P101
     RDKit          3D

 33 34  0  0  0  0  0  0  0  0999 V2000
    9.2865  -11.4144   18.1501 C   0  0  0  0  0  0  0  0  0  0  0  0
    8.6026  -10.8271   19.3712 C   0  0  0  0  0  0  0  0  0  0  0  0
    8.7478   -9.4889   19.4710 F   0  0  0  0  0  0  0  0  0  0  0  0
    7.2536  -10.9844   19.2263 F   0  0  0  0  0  0  0  0  0  0  0  0
    9.0811  -11.4606   20.6956 C   0  0  0  0  0  0  0  0  0  0  0  0
    7.9328  -11.4521   21.7099 N   0  0  0  0  0  0  0  0  0  0  0  0
    6.9785  -12.9006   21.6168 S   0  0  0  0  0  0  0  0  0  0  0  0
    7.5789  -13.8716   22.5017 O   0  0  0  0  0  0  0  0  0  0  0  0
    6.8111  -13.2032   20.2148 O   0  0  0  0  0  0  0  0  0  0  0  0
    5.3395  -12.6290   22.2096 C   0  0  0  0  0  0  0  0  0  0  0  0
    4.4641  -11.8046   21.5362 N   0  0  0  0  0  0  0  0  0  0  0  0
    3.3787  -11.5941   22.3284 C   0  0  0  0  0  0  0  0  0  0  0  0
    3.3723  -12.4254   23.3377 N   0  0  0  0  0  0  0  0  0  0  0  0
    4.5471  -13.1247   23.2262 C   0  0  0  0  0  0  0  0  0  0  0  0
    4.9775  -14.4833   24.4315 Br  0  0  0  0  0  0  0  0  0  0  0  0
   10.3716  -10.7906   21.1743 C   0  0  0  0  0  0  0  0  0  0  0  0
   10.3796   -9.6122   21.9312 C   0  0  0  0  0  0  0  0  0  0  0  0
   11.5888   -9.0464   22.3506 C   0  0  0  0  0  0  0  0  0  0  0  0
   12.8033   -9.6269   21.9969 C   0  0  0  0  0  0  0  0  0  0  0  0
   12.8152  -10.7839   21.2263 C   0  0  0  0  0  0  0  0  0  0  0  0
   11.6105  -11.3538   20.8119 C   0  0  0  0  0  0  0  0  0  0  0  0
    8.9251  -10.9430   17.2343 H   0  0  0  0  0  0  0  0  0  0  0  0
    9.0676  -12.4838   18.0649 H   0  0  0  0  0  0  0  0  0  0  0  0
   10.3712  -11.2843   18.1802 H   0  0  0  0  0  0  0  0  0  0  0  0
    9.3275  -12.5189   20.5317 H   0  0  0  0  0  0  0  0  0  0  0  0
    7.3477  -10.6288   21.5593 H   0  0  0  0  0  0  0  0  0  0  0  0
    4.6476  -11.3713   20.6407 H   0  0  0  0  0  0  0  0  0  0  0  0
    2.6068  -10.8765   22.0882 H   0  0  0  0  0  0  0  0  0  0  0  0
    9.4426   -9.1481   22.2264 H   0  0  0  0  0  0  0  0  0  0  0  0
   11.5936   -8.1714   22.9917 H   0  0  0  0  0  0  0  0  0  0  0  0
   13.7387   -9.1870   22.3333 H   0  0  0  0  0  0  0  0  0  0  0  0
   13.7608  -11.2432   20.9480 H   0  0  0  0  0  0  0  0  0  0  0  0
   11.6522  -12.2680   20.2214 H   0  0  0  0  0  0  0  0  0  0  0  0
  1  2  1  0
  2  3  1  0
  2  4  1  0
  2  5  1  0
  5  6  1  0
  6  7  1  0
  7  8  2  0
  7  9  2  0
  7 10  1  0
 10 11  1  0
 11 12  1  0
 12 13  2  0
 13 14  1  0
 14 15  1  0
  5 16  1  0
 16 17  2  0
 17 18  1  0
 18 19  2  0
 19 20  1  0
 20 21  2  0
 14 10  2  0
 21 16  1  0
  1 22  1  0
  1 23  1  0
  1 24  1  0
  5 25  1  0
  6 26  1  0
 11 27  1  0
 12 28  1  0
 17 29  1  0
 18 30  1  0
 19 31  1  0
 20 32  1  0
 21 33  1  0
M  END
>  <Energy>  (1025) 
-47.671512526344024

>  <compound_id>  (1025) 
54759

>  <target_id>  (1025) 
1

>  <reference_id>  (1025) 
101

>  <inspiration_ids>  (1025) 
[101, 20]

>  <energy_score>  (1025) 
-36.630584553110424

>  <distance_score>  (1025) 
15.666413984947734

>  <path>  (1025) 
/opt/xchem-fragalysis-2/maxwin/BulkDock/SCRATCH/511024/C54759-P101/C54759-P101.minimised.mol

>  <scratch_subdir>  (1025) 
/opt/xchem-fragalysis-2/maxwin/BulkDock/SCRATCH/511024/C54759-P101

>  <fragmenstein_runtime>  (1025) 
18.941453218460083

>  <fragmenstein_outcome>  (1025) 
too moved

>  <fragmenstein_mode>  (1025) 
expansion

>  <fragmenstein_error>  (1025) 


$$$$
C54759-P20
     RDKit          3D

 33 34  0  0  0  0  0  0  0  0999 V2000
    9.6194   -9.3969   23.3779 C   0  0  0  0  0  0  0  0  0  0  0  0
    9.2305   -9.4793   21.9075 C   0  0  0  0  0  0  0  0  0  0  0  0
   10.2129   -8.8344   21.2197 F   0  0  0  0  0  0  0  0  0  0  0  0
    8.0909   -8.7900   21.6919 F   0  0  0  0  0  0  0  0  0  0  0  0
    9.0941  -10.9452   21.4176 C   0  0  0  0  0  0  0  0  0  0  0  0
    7.7900  -11.7282   21.6824 N   0  0  0  0  0  0  0  0  0  0  0  0
    6.3778  -10.9837   22.2870 S   0  0  0  0  0  0  0  0  0  0  0  0
    5.7201  -10.3746   21.1592 O   0  0  0  0  0  0  0  0  0  0  0  0
    6.7262  -10.2819   23.4987 O   0  0  0  0  0  0  0  0  0  0  0  0
    5.2598  -12.2439   22.8690 C   0  0  0  0  0  0  0  0  0  0  0  0
    5.7228  -13.4019   23.4521 N   0  0  0  0  0  0  0  0  0  0  0  0
    4.6637  -14.1385   23.8815 C   0  0  0  0  0  0  0  0  0  0  0  0
    3.5355  -13.5487   23.6086 N   0  0  0  0  0  0  0  0  0  0  0  0
    3.8917  -12.3368   23.0605 C   0  0  0  0  0  0  0  0  0  0  0  0
    2.6212  -10.9374   22.9024 Br  0  0  0  0  0  0  0  0  0  0  0  0
    9.6357  -11.1890   20.0046 C   0  0  0  0  0  0  0  0  0  0  0  0
    8.8080  -11.1956   18.8749 C   0  0  0  0  0  0  0  0  0  0  0  0
    9.3271  -11.4973   17.6069 C   0  0  0  0  0  0  0  0  0  0  0  0
   10.6811  -11.7797   17.4482 C   0  0  0  0  0  0  0  0  0  0  0  0
   11.5163  -11.7825   18.5607 C   0  0  0  0  0  0  0  0  0  0  0  0
   11.0039  -11.4685   19.8222 C   0  0  0  0  0  0  0  0  0  0  0  0
    9.4291   -8.3946   23.7684 H   0  0  0  0  0  0  0  0  0  0  0  0
   10.6868   -9.6071   23.5023 H   0  0  0  0  0  0  0  0  0  0  0  0
    9.0678  -10.1003   24.0044 H   0  0  0  0  0  0  0  0  0  0  0  0
    9.7943  -11.5150   22.0506 H   0  0  0  0  0  0  0  0  0  0  0  0
    7.5219  -12.2374   20.8355 H   0  0  0  0  0  0  0  0  0  0  0  0
    6.6976  -13.6279   23.5876 H   0  0  0  0  0  0  0  0  0  0  0  0
    4.7845  -15.0860   24.3738 H   0  0  0  0  0  0  0  0  0  0  0  0
    7.7469  -10.9710   18.9655 H   0  0  0  0  0  0  0  0  0  0  0  0
    8.6721  -11.5081   16.7391 H   0  0  0  0  0  0  0  0  0  0  0  0
   11.0816  -12.0059   16.4634 H   0  0  0  0  0  0  0  0  0  0  0  0
   12.5725  -12.0174   18.4446 H   0  0  0  0  0  0  0  0  0  0  0  0
   11.6866  -11.4689   20.6704 H   0  0  0  0  0  0  0  0  0  0  0  0
  1  2  1  0
  2  3  1  0
  2  4  1  0
  2  5  1  0
  5  6  1  0
  6  7  1  0
  7  8  2  0
  7  9  2  0
  7 10  1  0
 10 11  1  0
 11 12  1  0
 12 13  2  0
 13 14  1  0
 14 15  1  0
  5 16  1  0
 16 17  2  0
 17 18  1  0
 18 19  2  0
 19 20  1  0
 20 21  2  0
 14 10  2  0
 21 16  1  0
  1 22  1  0
  1 23  1  0
  1 24  1  0
  5 25  1  0
  6 26  1  0
 11 27  1  0
 12 28  1  0
 17 29  1  0
 18 30  1  0
 19 31  1  0
 20 32  1  0
 21 33  1  0
M  END
>  <Energy>  (1026) 
-43.836421836238266

>  <compound_id>  (1026) 
54759

>  <target_id>  (1026) 
1

>  <reference_id>  (1026) 
20

>  <inspiration_ids>  (1026) 
[101, 20]

>  <energy_score>  (1026) 
-32.79549386300357

>  <distance_score>  (1026) 
15.55710979546741

>  <path>  (1026) 
/opt/xchem-fragalysis-2/maxwin/BulkDock/SCRATCH/511024/C54759-P20/C54759-P20.minimised.mol

>  <scratch_subdir>  (1026) 
/opt/xchem-fragalysis-2/maxwin/BulkDock/SCRATCH/511024/C54759-P20

>  <fragmenstein_runtime>  (1026) 
16.304956912994385

>  <fragmenstein_outcome>  (1026) 
too moved

>  <fragmenstein_mode>  (1026) 
expansion

>  <fragmenstein_error>  (1026) 


$$$$
C54760-P101
     RDKit          3D

 33 34  0  0  0  0  0  0  0  0999 V2000
   -9.9258  -21.2350   28.2172 C   0  0  0  0  0  0  0  0  0  0  0  0
   -8.0008  -21.0217   27.5078 C   0  0  0  0  0  0  0  0  0  0  0  0
   -7.6423  -22.7423   27.4313 C   0  0  0  0  0  0  0  0  0  0  0  0
   -8.9835  -23.6305   27.8748 C   0  0  0  0  0  0  0  0  0  0  0  0
   -9.8634  -24.3725   28.0685 N   0  0  0  0  0  0  0  0  0  0  0  0
   -6.8879  -19.5404   26.8789 N   0  0  0  0  0  0  0  0  0  0  0  0
   -7.1172  -17.9839   26.9280 C   0  0  0  0  0  0  0  0  0  0  0  0
   -8.0814  -17.3406   27.2957 O   0  0  0  0  0  0  0  0  0  0  0  0
   -5.8200  -17.3698   26.4864 C   0  0  0  0  0  0  0  0  0  0  0  0
   -5.3908  -16.0558   26.5863 C   0  0  0  0  0  0  0  0  0  0  0  0
   -4.0320  -16.0483   26.2845 N   0  0  0  0  0  0  0  0  0  0  0  0
   -3.0766  -14.9613   26.4299 C   0  0  0  0  0  0  0  0  0  0  0  0
   -1.6866  -15.2019   26.4328 C   0  0  0  0  0  0  0  0  0  0  0  0
   -0.7724  -14.1904   26.7823 C   0  0  0  0  0  0  0  0  0  0  0  0
   -1.2144  -12.9115   27.0951 C   0  0  0  0  0  0  0  0  0  0  0  0
   -2.5685  -12.6212   26.9747 C   0  0  0  0  0  0  0  0  0  0  0  0
   -3.4919  -13.6369   26.6508 C   0  0  0  0  0  0  0  0  0  0  0  0
   -3.7535  -17.3456   25.8851 C   0  0  0  0  0  0  0  0  0  0  0  0
   -4.7739  -18.1668   26.0130 N   0  0  0  0  0  0  0  0  0  0  0  0
  -10.2346  -22.2138   28.5419 H   0  0  0  0  0  0  0  0  0  0  0  0
  -10.7094  -21.2769   27.4298 H   0  0  0  0  0  0  0  0  0  0  0  0
  -10.2218  -20.7639   29.1811 H   0  0  0  0  0  0  0  0  0  0  0  0
   -7.1589  -21.2227   28.0551 H   0  0  0  0  0  0  0  0  0  0  0  0
   -6.6996  -22.9904   27.9120 H   0  0  0  0  0  0  0  0  0  0  0  0
   -7.3369  -23.0456   26.4344 H   0  0  0  0  0  0  0  0  0  0  0  0
   -5.9310  -19.7297   26.5953 H   0  0  0  0  0  0  0  0  0  0  0  0
   -5.9035  -15.1813   26.9574 H   0  0  0  0  0  0  0  0  0  0  0  0
   -1.2788  -16.1930   26.2601 H   0  0  0  0  0  0  0  0  0  0  0  0
    0.2890  -14.4037   26.8355 H   0  0  0  0  0  0  0  0  0  0  0  0
   -0.4978  -12.1534   27.3937 H   0  0  0  0  0  0  0  0  0  0  0  0
   -2.9319  -11.6194   27.1879 H   0  0  0  0  0  0  0  0  0  0  0  0
   -4.5463  -13.3720   26.6249 H   0  0  0  0  0  0  0  0  0  0  0  0
   -2.7774  -17.6338   25.5201 H   0  0  0  0  0  0  0  0  0  0  0  0
  1  2  1  0
  2  3  1  0
  3  4  1  0
  4  5  3  0
  2  6  1  0
  6  7  1  0
  7  8  2  0
  7  9  1  0
  9 10  2  0
 10 11  1  0
 11 12  1  0
 12 13  2  0
 13 14  1  0
 14 15  2  0
 15 16  1  0
 16 17  2  0
 11 18  1  0
 18 19  2  0
 19  9  1  0
 17 12  1  0
  1 20  1  0
  1 21  1  0
  1 22  1  0
  2 23  1  0
  3 24  1  0
  3 25  1  0
  6 26  1  0
 10 27  1  0
 13 28  1  0
 14 29  1  0
 15 30  1  0
 16 31  1  0
 17 32  1  0
 18 33  1  0
M  END
>  <Energy>  (1027) 
322.0741119929549

>  <compound_id>  (1027) 
54760

>  <target_id>  (1027) 
1

>  <reference_id>  (1027) 
101

>  <inspiration_ids>  (1027) 
[101, 20]

>  <energy_score>  (1027) 
244.62556647218298

>  <distance_score>  (1027) 
16.319878626887625

>  <path>  (1027) 
/opt/xchem-fragalysis-2/maxwin/BulkDock/SCRATCH/511024/C54760-P101/C54760-P101.minimised.mol

>  <scratch_subdir>  (1027) 
/opt/xchem-fragalysis-2/maxwin/BulkDock/SCRATCH/511024/C54760-P101

>  <fragmenstein_runtime>  (1027) 
29.579108953475952

>  <fragmenstein_outcome>  (1027) 
too moved

>  <fragmenstein_mode>  (1027) 
expansion

>  <fragmenstein_error>  (1027) 


$$$$
C54760-P20
     RDKit          3D

 33 34  0  0  0  0  0  0  0  0999 V2000
   -8.4874  -12.5053   21.7321 C   0  0  0  0  0  0  0  0  0  0  0  0
   -7.2736  -13.1256   22.4216 C   0  0  0  0  0  0  0  0  0  0  0  0
   -7.2600  -14.6461   22.2294 C   0  0  0  0  0  0  0  0  0  0  0  0
   -6.2381  -15.2888   23.0671 C   0  0  0  0  0  0  0  0  0  0  0  0
   -5.4395  -15.8160   23.7233 N   0  0  0  0  0  0  0  0  0  0  0  0
   -6.0660  -12.5006   21.9235 N   0  0  0  0  0  0  0  0  0  0  0  0
   -5.4030  -11.1699   22.3024 C   0  0  0  0  0  0  0  0  0  0  0  0
   -5.6780  -10.3982   23.1292 O   0  0  0  0  0  0  0  0  0  0  0  0
   -4.2485  -10.9775   21.4081 C   0  0  0  0  0  0  0  0  0  0  0  0
   -3.3534   -9.9242   21.4392 C   0  0  0  0  0  0  0  0  0  0  0  0
   -2.4915  -10.0030   20.3197 N   0  0  0  0  0  0  0  0  0  0  0  0
   -1.4129   -8.7723   19.7637 C   0  0  0  0  0  0  0  0  0  0  0  0
   -0.5848   -7.9223   20.5863 C   0  0  0  0  0  0  0  0  0  0  0  0
    0.4610   -6.9424   20.1058 C   0  0  0  0  0  0  0  0  0  0  0  0
    0.8600   -6.7987   18.7788 C   0  0  0  0  0  0  0  0  0  0  0  0
    0.1071   -7.5682   17.9133 C   0  0  0  0  0  0  0  0  0  0  0  0
   -1.0127   -8.4760   18.3928 C   0  0  0  0  0  0  0  0  0  0  0  0
   -2.8792  -11.3210   19.8176 C   0  0  0  0  0  0  0  0  0  0  0  0
   -3.8756  -11.9285   20.4690 N   0  0  0  0  0  0  0  0  0  0  0  0
   -8.5138  -11.4211   21.8882 H   0  0  0  0  0  0  0  0  0  0  0  0
   -9.4191  -12.9247   22.1257 H   0  0  0  0  0  0  0  0  0  0  0  0
   -8.4614  -12.6814   20.6509 H   0  0  0  0  0  0  0  0  0  0  0  0
   -7.3330  -12.8791   23.4892 H   0  0  0  0  0  0  0  0  0  0  0  0
   -8.2397  -15.0619   22.4936 H   0  0  0  0  0  0  0  0  0  0  0  0
   -7.0787  -14.8948   21.1767 H   0  0  0  0  0  0  0  0  0  0  0  0
   -5.6123  -12.8824   21.0915 H   0  0  0  0  0  0  0  0  0  0  0  0
   -3.3224   -9.0334   22.0503 H   0  0  0  0  0  0  0  0  0  0  0  0
   -0.7124   -7.9875   21.6683 H   0  0  0  0  0  0  0  0  0  0  0  0
    0.9191   -6.3138   20.8647 H   0  0  0  0  0  0  0  0  0  0  0  0
    1.6321   -6.1141   18.4603 H   0  0  0  0  0  0  0  0  0  0  0  0
    0.2799   -7.5127   16.8404 H   0  0  0  0  0  0  0  0  0  0  0  0
   -1.5835   -8.9832   17.6140 H   0  0  0  0  0  0  0  0  0  0  0  0
   -2.3344  -11.7009   18.9651 H   0  0  0  0  0  0  0  0  0  0  0  0
  1  2  1  0
  2  3  1  0
  3  4  1  0
  4  5  3  0
  2  6  1  0
  6  7  1  0
  7  8  2  0
  7  9  1  0
  9 10  2  0
 10 11  1  0
 11 12  1  0
 12 13  2  0
 13 14  1  0
 14 15  2  0
 15 16  1  0
 16 17  2  0
 11 18  1  0
 18 19  2  0
 19  9  1  0
 17 12  1  0
  1 20  1  0
  1 21  1  0
  1 22  1  0
  2 23  1  0
  3 24  1  0
  3 25  1  0
  6 26  1  0
 10 27  1  0
 13 28  1  0
 14 29  1  0
 15 30  1  0
 16 31  1  0
 17 32  1  0
 18 33  1  0
M  END
>  <Energy>  (1028) 
128.93139025031098

>  <compound_id>  (1028) 
54760

>  <target_id>  (1028) 
1

>  <reference_id>  (1028) 
20

>  <inspiration_ids>  (1028) 
[101, 20]

>  <energy_score>  (1028) 
45.94299410230275

>  <distance_score>  (1028) 
16.11306478259142

>  <path>  (1028) 
/opt/xchem-fragalysis-2/maxwin/BulkDock/SCRATCH/511024/C54760-P20/C54760-P20.minimised.mol

>  <scratch_subdir>  (1028) 
/opt/xchem-fragalysis-2/maxwin/BulkDock/SCRATCH/511024/C54760-P20

>  <fragmenstein_runtime>  (1028) 
17.500393867492676

>  <fragmenstein_outcome>  (1028) 
too moved

>  <fragmenstein_mode>  (1028) 
expansion

>  <fragmenstein_error>  (1028) 


$$$$
C54762-P101
     RDKit          3D

 36 37  0  0  0  0  0  0  0  0999 V2000
    2.0947  -11.9703   23.6003 C   0  0  0  0  0  0  0  0  0  0  0  0
    2.4491  -13.2739   23.6069 C   0  0  0  0  0  0  0  0  0  0  0  0
    3.3981  -13.4031   21.8274 C   0  0  0  0  0  0  0  0  0  0  0  0
    4.5409  -12.4801   21.1751 N   0  0  0  0  0  0  0  0  0  0  0  0
    5.4386  -12.7104   19.9987 C   0  0  0  0  0  0  0  0  0  0  0  0
    5.4709  -13.6079   19.2035 O   0  0  0  0  0  0  0  0  0  0  0  0
    6.4903  -11.6499   19.8549 C   0  0  0  0  0  0  0  0  0  0  0  0
    6.9796  -10.6306   20.7373 C   0  0  0  0  0  0  0  0  0  0  0  0
    7.9416   -9.9240   20.0528 C   0  0  0  0  0  0  0  0  0  0  0  0
    8.0812  -10.4157   18.8005 O   0  0  0  0  0  0  0  0  0  0  0  0
    7.2244  -11.4606   18.6912 C   0  0  0  0  0  0  0  0  0  0  0  0
    0.7563  -14.2658   23.4686 N   0  0  0  0  0  0  0  0  0  0  0  0
   -0.8384  -14.3118   24.5763 C   0  0  0  0  0  0  0  0  0  0  0  0
   -1.0044  -13.5426   25.5311 O   0  0  0  0  0  0  0  0  0  0  0  0
   -2.3376  -15.6902   24.6090 C   0  0  0  0  0  0  0  0  0  0  0  0
   -2.5719  -17.4393   25.7651 C   0  0  0  0  0  0  0  0  0  0  0  0
   -2.8022  -19.1613   25.5789 N   0  0  0  0  0  0  0  0  0  0  0  0
   -4.6468  -19.8903   25.7369 C   0  0  0  0  0  0  0  0  0  0  0  0
   -5.0214  -18.7559   27.2626 C   0  0  0  0  0  0  0  0  0  0  0  0
   -3.4902  -17.5666   27.2936 N   0  0  0  0  0  0  0  0  0  0  0  0
    1.1734  -11.7892   23.0282 H   0  0  0  0  0  0  0  0  0  0  0  0
    2.8913  -11.4612   23.0932 H   0  0  0  0  0  0  0  0  0  0  0  0
    1.8606  -11.8951   24.6296 H   0  0  0  0  0  0  0  0  0  0  0  0
    3.1615  -13.7476   24.2718 H   0  0  0  0  0  0  0  0  0  0  0  0
    3.3588  -14.4876   21.9610 H   0  0  0  0  0  0  0  0  0  0  0  0
    3.0007  -13.6598   20.8466 H   0  0  0  0  0  0  0  0  0  0  0  0
    4.7438  -11.5728   21.5771 H   0  0  0  0  0  0  0  0  0  0  0  0
    6.6804  -10.4348   21.7562 H   0  0  0  0  0  0  0  0  0  0  0  0
    8.5869   -9.0963   20.3080 H   0  0  0  0  0  0  0  0  0  0  0  0
    7.2310  -11.9718   17.7367 H   0  0  0  0  0  0  0  0  0  0  0  0
    0.6502  -14.8950   22.6939 H   0  0  0  0  0  0  0  0  0  0  0  0
   -1.5302  -15.8510   24.0116 H   0  0  0  0  0  0  0  0  0  0  0  0
   -3.2488  -15.4613   24.0783 H   0  0  0  0  0  0  0  0  0  0  0  0
   -4.8003  -20.9485   25.6536 H   0  0  0  0  0  0  0  0  0  0  0  0
   -5.7581  -18.0714   27.4101 H   0  0  0  0  0  0  0  0  0  0  0  0
   -3.6322  -16.7054   27.7725 H   0  0  0  0  0  0  0  0  0  0  0  0
  1  2  1  0
  2  3  1  0
  3  4  1  0
  4  5  1  0
  5  6  2  0
  5  7  1  0
  7  8  1  0
  8  9  2  0
  9 10  1  0
 10 11  1  0
  2 12  1  0
 12 13  1  0
 13 14  2  0
 13 15  1  0
 15 16  1  0
 16 17  2  0
 17 18  1  0
 18 19  2  0
 19 20  1  0
 11  7  2  0
 20 16  1  0
  1 21  1  0
  1 22  1  0
  1 23  1  0
  2 24  1  0
  3 25  1  0
  3 26  1  0
  4 27  1  0
  8 28  1  0
  9 29  1  0
 11 30  1  0
 12 31  1  0
 15 32  1  0
 15 33  1  0
 18 34  1  0
 19 35  1  0
 20 36  1  0
M  END
>  <Energy>  (1029) 
935.22002951529225

>  <compound_id>  (1029) 
54762

>  <target_id>  (1029) 
1

>  <reference_id>  (1029) 
101

>  <inspiration_ids>  (1029) 
[101, 20]

>  <energy_score>  (1029) 
914.9017061012576

>  <distance_score>  (1029) 
11.293801488697891

>  <path>  (1029) 
/opt/xchem-fragalysis-2/maxwin/BulkDock/SCRATCH/511024/C54762-P101/C54762-P101.minimised.mol

>  <scratch_subdir>  (1029) 
/opt/xchem-fragalysis-2/maxwin/BulkDock/SCRATCH/511024/C54762-P101

>  <fragmenstein_runtime>  (1029) 
34.274547815322876

>  <fragmenstein_outcome>  (1029) 
too moved

>  <fragmenstein_mode>  (1029) 
expansion

>  <fragmenstein_error>  (1029) 


$$$$
C54762-P20
     RDKit          3D

 36 37  0  0  0  0  0  0  0  0999 V2000
    1.8571  -15.3237   23.5756 C   0  0  0  0  0  0  0  0  0  0  0  0
    2.4727  -17.3269   24.2745 C   0  0  0  0  0  0  0  0  0  0  0  0
    3.5787  -15.6529   23.3878 C   0  0  0  0  0  0  0  0  0  0  0  0
    3.3284  -14.3310   21.8261 N   0  0  0  0  0  0  0  0  0  0  0  0
    4.6267  -13.2996   20.8001 C   0  0  0  0  0  0  0  0  0  0  0  0
    5.7980  -13.2774   21.0765 O   0  0  0  0  0  0  0  0  0  0  0  0
    4.4251  -12.5357   19.4968 C   0  0  0  0  0  0  0  0  0  0  0  0
    4.9924  -11.1404   19.2249 C   0  0  0  0  0  0  0  0  0  0  0  0
    5.3592  -11.0280   17.9128 C   0  0  0  0  0  0  0  0  0  0  0  0
    5.3822  -12.2657   17.3853 O   0  0  0  0  0  0  0  0  0  0  0  0
    4.9955  -13.1332   18.3585 C   0  0  0  0  0  0  0  0  0  0  0  0
    0.7313  -18.5052   24.5966 N   0  0  0  0  0  0  0  0  0  0  0  0
   -0.6100  -18.4362   25.9844 C   0  0  0  0  0  0  0  0  0  0  0  0
   -0.5268  -17.7136   26.9543 O   0  0  0  0  0  0  0  0  0  0  0  0
   -2.4292  -19.3591   25.9802 C   0  0  0  0  0  0  0  0  0  0  0  0
   -4.2728  -20.1475   25.3876 C   0  0  0  0  0  0  0  0  0  0  0  0
   -4.7614  -21.3883   25.3242 N   0  0  0  0  0  0  0  0  0  0  0  0
   -5.4112  -22.1861   26.7114 C   0  0  0  0  0  0  0  0  0  0  0  0
   -5.9243  -21.2053   27.4158 C   0  0  0  0  0  0  0  0  0  0  0  0
   -5.5916  -19.9361   26.4141 N   0  0  0  0  0  0  0  0  0  0  0  0
    0.8697  -14.6410   24.1501 H   0  0  0  0  0  0  0  0  0  0  0  0
    2.4681  -14.2781   23.5739 H   0  0  0  0  0  0  0  0  0  0  0  0
    1.0795  -14.8781   22.8338 H   0  0  0  0  0  0  0  0  0  0  0  0
    3.1828  -18.0220   23.8400 H   0  0  0  0  0  0  0  0  0  0  0  0
    3.8570  -14.8824   24.1864 H   0  0  0  0  0  0  0  0  0  0  0  0
    4.5853  -15.9356   23.6801 H   0  0  0  0  0  0  0  0  0  0  0  0
    2.4394  -14.2763   21.3815 H   0  0  0  0  0  0  0  0  0  0  0  0
    5.1377  -10.3584   19.9631 H   0  0  0  0  0  0  0  0  0  0  0  0
    5.7400  -10.2362   17.2865 H   0  0  0  0  0  0  0  0  0  0  0  0
    5.2100  -14.1732   18.1349 H   0  0  0  0  0  0  0  0  0  0  0  0
    0.4930  -19.2456   23.9249 H   0  0  0  0  0  0  0  0  0  0  0  0
   -2.1723  -19.8623   26.8827 H   0  0  0  0  0  0  0  0  0  0  0  0
   -2.3164  -19.8326   25.0385 H   0  0  0  0  0  0  0  0  0  0  0  0
   -5.8000  -23.1897   26.5823 H   0  0  0  0  0  0  0  0  0  0  0  0
   -6.9662  -21.2011   27.7192 H   0  0  0  0  0  0  0  0  0  0  0  0
   -6.2891  -19.3808   26.0037 H   0  0  0  0  0  0  0  0  0  0  0  0
  1  2  1  0
  2  3  1  0
  3  4  1  0
  4  5  1  0
  5  6  2  0
  5  7  1  0
  7  8  1  0
  8  9  2  0
  9 10  1  0
 10 11  1  0
  2 12  1  0
 12 13  1  0
 13 14  2  0
 13 15  1  0
 15 16  1  0
 16 17  2  0
 17 18  1  0
 18 19  2  0
 19 20  1  0
 11  7  2  0
 20 16  1  0
  1 21  1  0
  1 22  1  0
  1 23  1  0
  2 24  1  0
  3 25  1  0
  3 26  1  0
  4 27  1  0
  8 28  1  0
  9 29  1  0
 11 30  1  0
 12 31  1  0
 15 32  1  0
 15 33  1  0
 18 34  1  0
 19 35  1  0
 20 36  1  0
M  END
>  <Energy>  (1030) 
1366.9141443624151

>  <compound_id>  (1030) 
54762

>  <target_id>  (1030) 
1

>  <reference_id>  (1030) 
20

>  <inspiration_ids>  (1030) 
[101, 20]

>  <energy_score>  (1030) 
1346.5958209483601

>  <distance_score>  (1030) 
11.351270995992977

>  <path>  (1030) 
/opt/xchem-fragalysis-2/maxwin/BulkDock/SCRATCH/511024/C54762-P20/C54762-P20.minimised.mol

>  <scratch_subdir>  (1030) 
/opt/xchem-fragalysis-2/maxwin/BulkDock/SCRATCH/511024/C54762-P20

>  <fragmenstein_runtime>  (1030) 
31.09882616996765

>  <fragmenstein_outcome>  (1030) 
too moved

>  <fragmenstein_mode>  (1030) 
expansion

>  <fragmenstein_error>  (1030) 


$$$$
C54763-P101
     RDKit          3D

 39 40  0  0  0  0  0  0  0  0999 V2000
   -2.0865  -14.0493   25.5470 C   0  0  0  0  0  0  0  0  0  0  0  0
   -1.5508  -15.0954   24.6135 C   0  0  0  0  0  0  0  0  0  0  0  0
    0.3490  -14.3945   24.4321 C   0  0  0  0  0  0  0  0  0  0  0  0
    1.8404  -13.9638   23.5637 N   0  0  0  0  0  0  0  0  0  0  0  0
    2.6051  -12.6222   23.4421 C   0  0  0  0  0  0  0  0  0  0  0  0
    2.3135  -11.7181   24.0225 O   0  0  0  0  0  0  0  0  0  0  0  0
    3.8969  -12.1943   22.2929 C   0  0  0  0  0  0  0  0  0  0  0  0
    4.5875  -10.8108   22.1742 C   0  0  0  0  0  0  0  0  0  0  0  0
    5.6172  -10.4219   21.2444 C   0  0  0  0  0  0  0  0  0  0  0  0
    6.0128  -11.3021   20.2420 C   0  0  0  0  0  0  0  0  0  0  0  0
    5.3096  -12.5024   20.1043 C   0  0  0  0  0  0  0  0  0  0  0  0
    4.2647  -12.8664   21.0551 C   0  0  0  0  0  0  0  0  0  0  0  0
   -2.8253  -16.3232   25.1891 N   0  0  0  0  0  0  0  0  0  0  0  0
   -3.1180  -17.1222   26.8346 C   0  0  0  0  0  0  0  0  0  0  0  0
   -2.3544  -16.9338   27.7075 O   0  0  0  0  0  0  0  0  0  0  0  0
   -4.7822  -18.2430   27.5129 C   0  0  0  0  0  0  0  0  0  0  0  0
   -5.7065  -19.8618   26.8680 C   0  0  0  0  0  0  0  0  0  0  0  0
   -5.0931  -21.0922   26.4548 N   0  0  0  0  0  0  0  0  0  0  0  0
   -5.7199  -22.3770   27.2398 C   0  0  0  0  0  0  0  0  0  0  0  0
   -7.0015  -22.1319   27.7090 C   0  0  0  0  0  0  0  0  0  0  0  0
   -7.1569  -20.4965   27.6271 N   0  0  0  0  0  0  0  0  0  0  0  0
   -2.6919  -13.1401   25.4359 H   0  0  0  0  0  0  0  0  0  0  0  0
   -1.2431  -13.4336   25.5815 H   0  0  0  0  0  0  0  0  0  0  0  0
   -2.2549  -14.5446   26.4967 H   0  0  0  0  0  0  0  0  0  0  0  0
   -1.7426  -15.1550   23.5951 H   0  0  0  0  0  0  0  0  0  0  0  0
    0.6815  -13.8532   25.3854 H   0  0  0  0  0  0  0  0  0  0  0  0
   -0.1214  -13.9488   23.5408 H   0  0  0  0  0  0  0  0  0  0  0  0
    2.3211  -14.6413   23.0300 H   0  0  0  0  0  0  0  0  0  0  0  0
    4.1773   -9.9738   22.7090 H   0  0  0  0  0  0  0  0  0  0  0  0
    6.0217   -9.4132   21.2816 H   0  0  0  0  0  0  0  0  0  0  0  0
    6.7628  -11.0129   19.5123 H   0  0  0  0  0  0  0  0  0  0  0  0
    5.4621  -13.1330   19.2305 H   0  0  0  0  0  0  0  0  0  0  0  0
    3.5022  -13.5714   20.8191 H   0  0  0  0  0  0  0  0  0  0  0  0
   -3.5808  -16.5091   24.6115 H   0  0  0  0  0  0  0  0  0  0  0  0
   -5.6140  -17.9799   27.0504 H   0  0  0  0  0  0  0  0  0  0  0  0
   -5.3847  -17.7922   28.3764 H   0  0  0  0  0  0  0  0  0  0  0  0
   -5.1731  -23.2866   27.1750 H   0  0  0  0  0  0  0  0  0  0  0  0
   -7.8871  -22.6551   27.9966 H   0  0  0  0  0  0  0  0  0  0  0  0
   -7.6124  -19.7783   28.1730 H   0  0  0  0  0  0  0  0  0  0  0  0
  1  2  1  0
  2  3  1  0
  3  4  1  0
  4  5  1  0
  5  6  2  0
  5  7  1  0
  7  8  2  0
  8  9  1  0
  9 10  2  0
 10 11  1  0
 11 12  2  0
  2 13  1  0
 13 14  1  0
 14 15  2  0
 14 16  1  0
 16 17  1  0
 17 18  2  0
 18 19  1  0
 19 20  2  0
 20 21  1  0
 12  7  1  0
 21 17  1  0
  1 22  1  0
  1 23  1  0
  1 24  1  0
  2 25  1  0
  3 26  1  0
  3 27  1  0
  4 28  1  0
  8 29  1  0
  9 30  1  0
 10 31  1  0
 11 32  1  0
 12 33  1  0
 13 34  1  0
 16 35  1  0
 16 36  1  0
 19 37  1  0
 20 38  1  0
 21 39  1  0
M  END
>  <Energy>  (1031) 
762.49989208313843

>  <compound_id>  (1031) 
54763

>  <target_id>  (1031) 
1

>  <reference_id>  (1031) 
101

>  <inspiration_ids>  (1031) 
[101, 20]

>  <energy_score>  (1031) 
703.8761234079191

>  <distance_score>  (1031) 
12.025716490288968

>  <path>  (1031) 
/opt/xchem-fragalysis-2/maxwin/BulkDock/SCRATCH/511024/C54763-P101/C54763-P101.minimised.mol

>  <scratch_subdir>  (1031) 
/opt/xchem-fragalysis-2/maxwin/BulkDock/SCRATCH/511024/C54763-P101

>  <fragmenstein_runtime>  (1031) 
18.59943962097168

>  <fragmenstein_outcome>  (1031) 
too moved

>  <fragmenstein_mode>  (1031) 
expansion

>  <fragmenstein_error>  (1031) 


$$$$
C54763-P20
     RDKit          3D

 39 40  0  0  0  0  0  0  0  0999 V2000
    5.9302  -11.6039   20.8643 C   0  0  0  0  0  0  0  0  0  0  0  0
    4.9675  -12.9251   20.7002 C   0  0  0  0  0  0  0  0  0  0  0  0
    5.5897  -13.5964   19.2017 C   0  0  0  0  0  0  0  0  0  0  0  0
    6.7879  -12.9742   18.6389 N   0  0  0  0  0  0  0  0  0  0  0  0
    8.1760  -13.1851   18.9191 C   0  0  0  0  0  0  0  0  0  0  0  0
    8.7116  -13.8690   19.7430 O   0  0  0  0  0  0  0  0  0  0  0  0
    9.1212  -12.4527   17.9812 C   0  0  0  0  0  0  0  0  0  0  0  0
   10.4467  -12.2535   18.4007 C   0  0  0  0  0  0  0  0  0  0  0  0
   11.4086  -11.7338   17.5316 C   0  0  0  0  0  0  0  0  0  0  0  0
   11.0543  -11.3397   16.2465 C   0  0  0  0  0  0  0  0  0  0  0  0
    9.7426  -11.5173   15.8175 C   0  0  0  0  0  0  0  0  0  0  0  0
    8.7854  -12.0809   16.6710 C   0  0  0  0  0  0  0  0  0  0  0  0
    3.3765  -13.5097   21.4791 N   0  0  0  0  0  0  0  0  0  0  0  0
    2.8724  -13.6460   23.2035 C   0  0  0  0  0  0  0  0  0  0  0  0
    3.4399  -13.3058   24.2032 O   0  0  0  0  0  0  0  0  0  0  0  0
    1.0949  -14.4080   23.6126 C   0  0  0  0  0  0  0  0  0  0  0  0
   -0.6735  -14.3795   24.1884 C   0  0  0  0  0  0  0  0  0  0  0  0
   -1.5714  -15.2821   23.9321 N   0  0  0  0  0  0  0  0  0  0  0  0
   -2.5052  -15.4249   24.8761 C   0  0  0  0  0  0  0  0  0  0  0  0
   -2.2203  -14.5172   25.8366 C   0  0  0  0  0  0  0  0  0  0  0  0
   -1.3658  -13.7048   25.2259 N   0  0  0  0  0  0  0  0  0  0  0  0
    6.0612  -11.0481   19.9281 H   0  0  0  0  0  0  0  0  0  0  0  0
    5.6675  -10.8689   21.6327 H   0  0  0  0  0  0  0  0  0  0  0  0
    6.9480  -11.9395   21.1046 H   0  0  0  0  0  0  0  0  0  0  0  0
    4.2421  -12.6049   20.0176 H   0  0  0  0  0  0  0  0  0  0  0  0
    4.8186  -13.4869   18.4235 H   0  0  0  0  0  0  0  0  0  0  0  0
    5.8425  -14.6572   19.2263 H   0  0  0  0  0  0  0  0  0  0  0  0
    6.7003  -12.2649   17.9255 H   0  0  0  0  0  0  0  0  0  0  0  0
   10.7552  -12.5733   19.3951 H   0  0  0  0  0  0  0  0  0  0  0  0
   12.4458  -11.6945   17.8544 H   0  0  0  0  0  0  0  0  0  0  0  0
   11.8139  -10.9397   15.5792 H   0  0  0  0  0  0  0  0  0  0  0  0
    9.4631  -11.2550   14.8018 H   0  0  0  0  0  0  0  0  0  0  0  0
    7.8005  -12.2751   16.2570 H   0  0  0  0  0  0  0  0  0  0  0  0
    2.7138  -13.9652   20.8823 H   0  0  0  0  0  0  0  0  0  0  0  0
    1.2188  -13.6497   24.3739 H   0  0  0  0  0  0  0  0  0  0  0  0
    0.4145  -14.4358   22.6758 H   0  0  0  0  0  0  0  0  0  0  0  0
   -3.0032  -16.3337   25.0378 H   0  0  0  0  0  0  0  0  0  0  0  0
   -2.2988  -14.6313   26.9035 H   0  0  0  0  0  0  0  0  0  0  0  0
   -0.7655  -12.9928   25.5554 H   0  0  0  0  0  0  0  0  0  0  0  0
  1  2  1  0
  2  3  1  0
  3  4  1  0
  4  5  1  0
  5  6  2  0
  5  7  1  0
  7  8  2  0
  8  9  1  0
  9 10  2  0
 10 11  1  0
 11 12  2  0
  2 13  1  0
 13 14  1  0
 14 15  2  0
 14 16  1  0
 16 17  1  0
 17 18  2  0
 18 19  1  0
 19 20  2  0
 20 21  1  0
 12  7  1  0
 21 17  1  0
  1 22  1  0
  1 23  1  0
  1 24  1  0
  2 25  1  0
  3 26  1  0
  3 27  1  0
  4 28  1  0
  8 29  1  0
  9 30  1  0
 10 31  1  0
 11 32  1  0
 12 33  1  0
 13 34  1  0
 16 35  1  0
 16 36  1  0
 19 37  1  0
 20 38  1  0
 21 39  1  0
M  END
>  <Energy>  (1032) 
420.75206216963039

>  <compound_id>  (1032) 
54763

>  <target_id>  (1032) 
1

>  <reference_id>  (1032) 
20

>  <inspiration_ids>  (1032) 
[101, 20]

>  <energy_score>  (1032) 
362.12829349440665

>  <distance_score>  (1032) 
12.598491441258002

>  <path>  (1032) 
/opt/xchem-fragalysis-2/maxwin/BulkDock/SCRATCH/511024/C54763-P20/C54763-P20.minimised.mol

>  <scratch_subdir>  (1032) 
/opt/xchem-fragalysis-2/maxwin/BulkDock/SCRATCH/511024/C54763-P20

>  <fragmenstein_runtime>  (1032) 
32.9981210231781

>  <fragmenstein_outcome>  (1032) 
too moved

>  <fragmenstein_mode>  (1032) 
expansion

>  <fragmenstein_error>  (1032) 


$$$$
C54764-P101
     RDKit          3D

 36 37  0  0  0  0  0  0  0  0999 V2000
   -0.4174  -14.2909   22.8281 C   0  0  0  0  0  0  0  0  0  0  0  0
   -0.5218  -14.3971   24.3116 C   0  0  0  0  0  0  0  0  0  0  0  0
    1.4009  -13.4664   24.4607 C   0  0  0  0  0  0  0  0  0  0  0  0
    2.7378  -13.5491   23.3355 N   0  0  0  0  0  0  0  0  0  0  0  0
    3.5652  -12.2904   22.4333 C   0  0  0  0  0  0  0  0  0  0  0  0
    3.3346  -11.1359   22.5846 O   0  0  0  0  0  0  0  0  0  0  0  0
    4.7339  -12.4889   21.0606 C   0  0  0  0  0  0  0  0  0  0  0  0
    5.0282  -12.9705   19.7709 C   0  0  0  0  0  0  0  0  0  0  0  0
    6.2883  -12.4752   19.2779 C   0  0  0  0  0  0  0  0  0  0  0  0
    6.6884  -11.5243   20.1641 C   0  0  0  0  0  0  0  0  0  0  0  0
    5.7789  -11.4172   21.1593 O   0  0  0  0  0  0  0  0  0  0  0  0
   -1.9094  -15.9377   24.5801 N   0  0  0  0  0  0  0  0  0  0  0  0
   -1.7802  -17.7310   25.5113 C   0  0  0  0  0  0  0  0  0  0  0  0
   -0.7427  -17.9563   26.1252 O   0  0  0  0  0  0  0  0  0  0  0  0
   -2.7898  -19.2548   25.5324 C   0  0  0  0  0  0  0  0  0  0  0  0
   -4.4981  -20.2169   25.3863 C   0  0  0  0  0  0  0  0  0  0  0  0
   -5.1045  -20.7952   26.4144 N   0  0  0  0  0  0  0  0  0  0  0  0
   -5.3098  -22.3219   26.4818 C   0  0  0  0  0  0  0  0  0  0  0  0
   -5.1211  -22.6694   25.2206 C   0  0  0  0  0  0  0  0  0  0  0  0
   -4.8022  -21.3003   24.6051 N   0  0  0  0  0  0  0  0  0  0  0  0
   -0.2299  -13.2521   22.7137 H   0  0  0  0  0  0  0  0  0  0  0  0
   -1.2334  -14.7514   22.3398 H   0  0  0  0  0  0  0  0  0  0  0  0
    0.3578  -14.7895   22.2765 H   0  0  0  0  0  0  0  0  0  0  0  0
    0.3109  -14.9144   24.5674 H   0  0  0  0  0  0  0  0  0  0  0  0
    1.5873  -13.3862   25.5684 H   0  0  0  0  0  0  0  0  0  0  0  0
    1.5938  -12.3753   24.2495 H   0  0  0  0  0  0  0  0  0  0  0  0
    3.0303  -14.4453   22.9856 H   0  0  0  0  0  0  0  0  0  0  0  0
    4.3867  -13.5425   19.1258 H   0  0  0  0  0  0  0  0  0  0  0  0
    6.7457  -12.7083   18.3278 H   0  0  0  0  0  0  0  0  0  0  0  0
    7.5104  -10.8249   20.2001 H   0  0  0  0  0  0  0  0  0  0  0  0
   -2.8432  -15.8427   24.1860 H   0  0  0  0  0  0  0  0  0  0  0  0
   -2.3819  -19.9293   24.7769 H   0  0  0  0  0  0  0  0  0  0  0  0
   -2.2536  -19.5991   26.4156 H   0  0  0  0  0  0  0  0  0  0  0  0
   -5.7885  -22.7848   27.3309 H   0  0  0  0  0  0  0  0  0  0  0  0
   -5.4119  -23.5126   24.5951 H   0  0  0  0  0  0  0  0  0  0  0  0
   -5.4401  -21.1381   23.8398 H   0  0  0  0  0  0  0  0  0  0  0  0
  1  2  1  0
  2  3  1  0
  3  4  1  0
  4  5  1  0
  5  6  2  0
  5  7  1  0
  7  8  2  0
  8  9  1  0
  9 10  2  0
 10 11  1  0
  2 12  1  0
 12 13  1  0
 13 14  2  0
 13 15  1  0
 15 16  1  0
 16 17  2  0
 17 18  1  0
 18 19  2  0
 19 20  1  0
 11  7  1  0
 20 16  1  0
  1 21  1  0
  1 22  1  0
  1 23  1  0
  2 24  1  0
  3 25  1  0
  3 26  1  0
  4 27  1  0
  8 28  1  0
  9 29  1  0
 10 30  1  0
 12 31  1  0
 15 32  1  0
 15 33  1  0
 18 34  1  0
 19 35  1  0
 20 36  1  0
M  END
>  <Energy>  (1033) 
854.29991172062273

>  <compound_id>  (1033) 
54764

>  <target_id>  (1033) 
1

>  <reference_id>  (1033) 
101

>  <inspiration_ids>  (1033) 
[101, 20]

>  <energy_score>  (1033) 
801.3883264374415

>  <distance_score>  (1033) 
11.7793210010318

>  <path>  (1033) 
/opt/xchem-fragalysis-2/maxwin/BulkDock/SCRATCH/511024/C54764-P101/C54764-P101.minimised.mol

>  <scratch_subdir>  (1033) 
/opt/xchem-fragalysis-2/maxwin/BulkDock/SCRATCH/511024/C54764-P101

>  <fragmenstein_runtime>  (1033) 
18.57666325569153

>  <fragmenstein_outcome>  (1033) 
too moved

>  <fragmenstein_mode>  (1033) 
expansion

>  <fragmenstein_error>  (1033) 


$$$$
C54764-P20
     RDKit          3D

 36 37  0  0  0  0  0  0  0  0999 V2000
    3.4127  -13.8477   24.3406 C   0  0  0  0  0  0  0  0  0  0  0  0
    2.1796  -12.8690   24.1048 C   0  0  0  0  0  0  0  0  0  0  0  0
    2.9923  -12.0510   22.9451 C   0  0  0  0  0  0  0  0  0  0  0  0
    3.6554  -10.4203   22.5993 N   0  0  0  0  0  0  0  0  0  0  0  0
    5.0777   -9.9040   22.6074 C   0  0  0  0  0  0  0  0  0  0  0  0
    6.1099  -10.4621   22.8683 O   0  0  0  0  0  0  0  0  0  0  0  0
    5.1408   -8.5063   22.1132 C   0  0  0  0  0  0  0  0  0  0  0  0
    6.0657   -7.9078   21.2758 C   0  0  0  0  0  0  0  0  0  0  0  0
    5.5162   -6.6639   20.8644 C   0  0  0  0  0  0  0  0  0  0  0  0
    4.3166   -6.5488   21.5149 C   0  0  0  0  0  0  0  0  0  0  0  0
    4.0687   -7.6631   22.2519 O   0  0  0  0  0  0  0  0  0  0  0  0
    0.8052  -14.1173   23.8263 N   0  0  0  0  0  0  0  0  0  0  0  0
   -0.9447  -14.3156   24.6193 C   0  0  0  0  0  0  0  0  0  0  0  0
   -1.3171  -13.4556   25.3690 O   0  0  0  0  0  0  0  0  0  0  0  0
   -2.2708  -15.7773   24.6613 C   0  0  0  0  0  0  0  0  0  0  0  0
   -2.7624  -16.9766   26.2359 C   0  0  0  0  0  0  0  0  0  0  0  0
   -3.6885  -16.8749   27.4548 N   0  0  0  0  0  0  0  0  0  0  0  0
   -5.1397  -17.9668   27.8088 C   0  0  0  0  0  0  0  0  0  0  0  0
   -4.6894  -18.9618   27.3910 C   0  0  0  0  0  0  0  0  0  0  0  0
   -2.8636  -18.3260   26.9698 N   0  0  0  0  0  0  0  0  0  0  0  0
    3.5349  -14.0778   25.4030 H   0  0  0  0  0  0  0  0  0  0  0  0
    3.0213  -14.5060   23.5397 H   0  0  0  0  0  0  0  0  0  0  0  0
    4.1579  -14.6430   24.1249 H   0  0  0  0  0  0  0  0  0  0  0  0
    1.8067  -12.2907   24.9140 H   0  0  0  0  0  0  0  0  0  0  0  0
    3.3759  -12.6303   22.1155 H   0  0  0  0  0  0  0  0  0  0  0  0
    1.9625  -11.7649   22.8134 H   0  0  0  0  0  0  0  0  0  0  0  0
    3.0119   -9.6399   22.4086 H   0  0  0  0  0  0  0  0  0  0  0  0
    6.9724   -8.3861   20.9286 H   0  0  0  0  0  0  0  0  0  0  0  0
    5.9218   -5.9463   20.1670 H   0  0  0  0  0  0  0  0  0  0  0  0
    3.5403   -5.7959   21.5301 H   0  0  0  0  0  0  0  0  0  0  0  0
    0.9418  -14.8051   23.1970 H   0  0  0  0  0  0  0  0  0  0  0  0
   -3.1622  -15.5735   24.0607 H   0  0  0  0  0  0  0  0  0  0  0  0
   -2.6120  -15.0705   25.4108 H   0  0  0  0  0  0  0  0  0  0  0  0
   -5.7024  -17.5592   28.7800 H   0  0  0  0  0  0  0  0  0  0  0  0
   -5.1359  -19.7568   26.6706 H   0  0  0  0  0  0  0  0  0  0  0  0
   -2.7196  -17.8229   27.7730 H   0  0  0  0  0  0  0  0  0  0  0  0
  1  2  1  0
  2  3  1  0
  3  4  1  0
  4  5  1  0
  5  6  2  0
  5  7  1  0
  7  8  2  0
  8  9  1  0
  9 10  2  0
 10 11  1  0
  2 12  1  0
 12 13  1  0
 13 14  2  0
 13 15  1  0
 15 16  1  0
 16 17  2  0
 17 18  1  0
 18 19  2  0
 19 20  1  0
 11  7  1  0
 20 16  1  0
  1 21  1  0
  1 22  1  0
  1 23  1  0
  2 24  1  0
  3 25  1  0
  3 26  1  0
  4 27  1  0
  8 28  1  0
  9 29  1  0
 10 30  1  0
 12 31  1  0
 15 32  1  0
 15 33  1  0
 18 34  1  0
 19 35  1  0
 20 36  1  0
M  END
>  <Energy>  (1034) 
855.14869111729922

>  <compound_id>  (1034) 
54764

>  <target_id>  (1034) 
1

>  <reference_id>  (1034) 
20

>  <inspiration_ids>  (1034) 
[101, 20]

>  <energy_score>  (1034) 
802.2371058341012

>  <distance_score>  (1034) 
11.26011412587743

>  <path>  (1034) 
/opt/xchem-fragalysis-2/maxwin/BulkDock/SCRATCH/511024/C54764-P20/C54764-P20.minimised.mol

>  <scratch_subdir>  (1034) 
/opt/xchem-fragalysis-2/maxwin/BulkDock/SCRATCH/511024/C54764-P20

>  <fragmenstein_runtime>  (1034) 
24.503416299819946

>  <fragmenstein_outcome>  (1034) 
too moved

>  <fragmenstein_mode>  (1034) 
expansion

>  <fragmenstein_error>  (1034) 


$$$$
C14977-P101
     RDKit          3D

 36 37  0  0  0  0  0  0  0  0999 V2000
    0.5136  -15.0055   22.0627 C   0  0  0  0  0  0  0  0  0  0  0  0
    1.8637  -14.4611   23.3428 C   0  0  0  0  0  0  0  0  0  0  0  0
    2.8489  -12.7247   23.0227 C   0  0  0  0  0  0  0  0  0  0  0  0
    4.1964  -11.8931   22.2121 N   0  0  0  0  0  0  0  0  0  0  0  0
    5.0531  -12.2850   20.8042 C   0  0  0  0  0  0  0  0  0  0  0  0
    4.8621  -13.1552   20.0007 O   0  0  0  0  0  0  0  0  0  0  0  0
    6.4852  -11.4458   20.5206 C   0  0  0  0  0  0  0  0  0  0  0  0
    7.5533  -11.5162   21.4661 C   0  0  0  0  0  0  0  0  0  0  0  0
    8.8703  -11.1713   21.0523 C   0  0  0  0  0  0  0  0  0  0  0  0
    8.8634  -10.6308   19.8058 C   0  0  0  0  0  0  0  0  0  0  0  0
    7.2813  -10.3388   19.2172 S   0  0  0  0  0  0  0  0  0  0  0  0
    0.5435  -14.1942   24.4845 N   0  0  0  0  0  0  0  0  0  0  0  0
   -0.9528  -14.6392   24.4429 C   0  0  0  0  0  0  0  0  0  0  0  0
   -1.5285  -15.1761   23.5924 O   0  0  0  0  0  0  0  0  0  0  0  0
   -2.0688  -14.4893   25.9679 C   0  0  0  0  0  0  0  0  0  0  0  0
   -2.2059  -15.9594   27.2721 C   0  0  0  0  0  0  0  0  0  0  0  0
   -1.2742  -16.5054   27.9509 N   0  0  0  0  0  0  0  0  0  0  0  0
   -0.9115  -17.7577   27.3448 C   0  0  0  0  0  0  0  0  0  0  0  0
   -1.9564  -18.1565   26.6367 C   0  0  0  0  0  0  0  0  0  0  0  0
   -2.8441  -17.1615   26.9902 N   0  0  0  0  0  0  0  0  0  0  0  0
   -0.2347  -14.2529   22.2968 H   0  0  0  0  0  0  0  0  0  0  0  0
   -0.0347  -15.9763   21.8805 H   0  0  0  0  0  0  0  0  0  0  0  0
    1.0498  -15.2176   21.0720 H   0  0  0  0  0  0  0  0  0  0  0  0
    2.7513  -15.1023   23.4827 H   0  0  0  0  0  0  0  0  0  0  0  0
    2.2023  -11.9628   23.4145 H   0  0  0  0  0  0  0  0  0  0  0  0
    3.3874  -12.9839   23.9217 H   0  0  0  0  0  0  0  0  0  0  0  0
    4.5745  -11.0486   22.6190 H   0  0  0  0  0  0  0  0  0  0  0  0
    7.3843  -11.7755   22.4979 H   0  0  0  0  0  0  0  0  0  0  0  0
    9.7627  -11.2918   21.6552 H   0  0  0  0  0  0  0  0  0  0  0  0
    9.7417  -10.3797   19.2486 H   0  0  0  0  0  0  0  0  0  0  0  0
    0.7180  -13.6670   25.3467 H   0  0  0  0  0  0  0  0  0  0  0  0
   -1.4481  -14.2712   26.8041 H   0  0  0  0  0  0  0  0  0  0  0  0
   -2.6480  -15.1971   25.3640 H   0  0  0  0  0  0  0  0  0  0  0  0
    0.1152  -18.0233   27.4465 H   0  0  0  0  0  0  0  0  0  0  0  0
   -2.1849  -18.9999   26.0290 H   0  0  0  0  0  0  0  0  0  0  0  0
   -3.8304  -17.3280   27.0742 H   0  0  0  0  0  0  0  0  0  0  0  0
  1  2  1  0
  2  3  1  0
  3  4  1  0
  4  5  1  0
  5  6  2  0
  5  7  1  0
  7  8  2  0
  8  9  1  0
  9 10  2  0
 10 11  1  0
  2 12  1  0
 12 13  1  0
 13 14  2  0
 13 15  1  0
 15 16  1  0
 16 17  2  0
 17 18  1  0
 18 19  2  0
 19 20  1  0
 11  7  1  0
 20 16  1  0
  1 21  1  0
  1 22  1  0
  1 23  1  0
  2 24  1  0
  3 25  1  0
  3 26  1  0
  4 27  1  0
  8 28  1  0
  9 29  1  0
 10 30  1  0
 12 31  1  0
 15 32  1  0
 15 33  1  0
 18 34  1  0
 19 35  1  0
 20 36  1  0
M  END
>  <Energy>  (1035) 
517.84058845473419

>  <compound_id>  (1035) 
14977

>  <target_id>  (1035) 
1

>  <reference_id>  (1035) 
101

>  <inspiration_ids>  (1035) 
[101, 20]

>  <energy_score>  (1035) 
470.50040360019796

>  <distance_score>  (1035) 
12.033552887274057

>  <path>  (1035) 
/opt/xchem-fragalysis-2/maxwin/BulkDock/SCRATCH/511024/C14977-P101/C14977-P101.minimised.mol

>  <scratch_subdir>  (1035) 
/opt/xchem-fragalysis-2/maxwin/BulkDock/SCRATCH/511024/C14977-P101

>  <fragmenstein_runtime>  (1035) 
26.808043003082275

>  <fragmenstein_outcome>  (1035) 
too moved

>  <fragmenstein_mode>  (1035) 
expansion

>  <fragmenstein_error>  (1035) 


$$$$
C14977-P20
     RDKit          3D

 36 37  0  0  0  0  0  0  0  0999 V2000
   -1.4868  -17.6615   19.4733 C   0  0  0  0  0  0  0  0  0  0  0  0
   -1.5768  -16.2386   20.0699 C   0  0  0  0  0  0  0  0  0  0  0  0
    0.3371  -16.2579   20.7559 C   0  0  0  0  0  0  0  0  0  0  0  0
    1.9333  -15.0853   20.4879 N   0  0  0  0  0  0  0  0  0  0  0  0
    3.0317  -14.2946   21.6591 C   0  0  0  0  0  0  0  0  0  0  0  0
    3.0119  -14.4478   22.8981 O   0  0  0  0  0  0  0  0  0  0  0  0
    4.1516  -13.0695   20.9192 C   0  0  0  0  0  0  0  0  0  0  0  0
    4.6383  -11.8466   21.3650 C   0  0  0  0  0  0  0  0  0  0  0  0
    6.1142  -11.6224   21.0626 C   0  0  0  0  0  0  0  0  0  0  0  0
    6.0542  -11.7079   19.7648 C   0  0  0  0  0  0  0  0  0  0  0  0
    5.1399  -13.0938   19.5990 S   0  0  0  0  0  0  0  0  0  0  0  0
   -3.2224  -16.9824   20.4749 N   0  0  0  0  0  0  0  0  0  0  0  0
   -4.2952  -16.7253   21.8100 C   0  0  0  0  0  0  0  0  0  0  0  0
   -4.1501  -15.8883   22.6852 O   0  0  0  0  0  0  0  0  0  0  0  0
   -5.8969  -17.9355   22.2595 C   0  0  0  0  0  0  0  0  0  0  0  0
   -6.0105  -18.8654   24.0143 C   0  0  0  0  0  0  0  0  0  0  0  0
   -4.9087  -19.8484   24.5185 N   0  0  0  0  0  0  0  0  0  0  0  0
   -5.0203  -20.3842   25.7784 C   0  0  0  0  0  0  0  0  0  0  0  0
   -5.8254  -19.6724   26.6102 C   0  0  0  0  0  0  0  0  0  0  0  0
   -6.5128  -18.9952   25.6821 N   0  0  0  0  0  0  0  0  0  0  0  0
   -0.5654  -17.9461   19.0043 H   0  0  0  0  0  0  0  0  0  0  0  0
   -1.6240  -18.3196   20.3331 H   0  0  0  0  0  0  0  0  0  0  0  0
   -2.2468  -17.9503   18.7440 H   0  0  0  0  0  0  0  0  0  0  0  0
   -1.7236  -15.5097   19.2828 H   0  0  0  0  0  0  0  0  0  0  0  0
    0.5529  -17.3030   20.7402 H   0  0  0  0  0  0  0  0  0  0  0  0
    0.0595  -15.9735   21.7408 H   0  0  0  0  0  0  0  0  0  0  0  0
    2.2332  -14.8461   19.5337 H   0  0  0  0  0  0  0  0  0  0  0  0
    4.1819  -11.4310   22.2644 H   0  0  0  0  0  0  0  0  0  0  0  0
    6.8411  -11.1225   21.6794 H   0  0  0  0  0  0  0  0  0  0  0  0
    6.6140  -11.0335   19.1543 H   0  0  0  0  0  0  0  0  0  0  0  0
   -3.6275  -17.6843   19.8515 H   0  0  0  0  0  0  0  0  0  0  0  0
   -6.9459  -17.5972   22.1995 H   0  0  0  0  0  0  0  0  0  0  0  0
   -5.9603  -18.6868   21.4540 H   0  0  0  0  0  0  0  0  0  0  0  0
   -4.7252  -21.3515   26.0057 H   0  0  0  0  0  0  0  0  0  0  0  0
   -6.0998  -19.6085   27.6393 H   0  0  0  0  0  0  0  0  0  0  0  0
   -7.0859  -18.4071   26.2705 H   0  0  0  0  0  0  0  0  0  0  0  0
  1  2  1  0
  2  3  1  0
  3  4  1  0
  4  5  1  0
  5  6  2  0
  5  7  1  0
  7  8  2  0
  8  9  1  0
  9 10  2  0
 10 11  1  0
  2 12  1  0
 12 13  1  0
 13 14  2  0
 13 15  1  0
 15 16  1  0
 16 17  2  0
 17 18  1  0
 18 19  2  0
 19 20  1  0
 11  7  1  0
 20 16  1  0
  1 21  1  0
  1 22  1  0
  1 23  1  0
  2 24  1  0
  3 25  1  0
  3 26  1  0
  4 27  1  0
  8 28  1  0
  9 29  1  0
 10 30  1  0
 12 31  1  0
 15 32  1  0
 15 33  1  0
 18 34  1  0
 19 35  1  0
 20 36  1  0
M  END
>  <Energy>  (1036) 
711.50915124639209

>  <compound_id>  (1036) 
14977

>  <target_id>  (1036) 
1

>  <reference_id>  (1036) 
20

>  <inspiration_ids>  (1036) 
[101, 20]

>  <energy_score>  (1036) 
664.1689663918575

>  <distance_score>  (1036) 
11.21390528725545

>  <path>  (1036) 
/opt/xchem-fragalysis-2/maxwin/BulkDock/SCRATCH/511024/C14977-P20/C14977-P20.minimised.mol

>  <scratch_subdir>  (1036) 
/opt/xchem-fragalysis-2/maxwin/BulkDock/SCRATCH/511024/C14977-P20

>  <fragmenstein_runtime>  (1036) 
17.43994450569153

>  <fragmenstein_outcome>  (1036) 
too moved

>  <fragmenstein_mode>  (1036) 
expansion

>  <fragmenstein_error>  (1036) 


$$$$
C54765-P101
     RDKit          3D

 45 46  0  0  0  0  0  0  0  0999 V2000
   -5.1915  -22.0883   26.7208 C   0  0  0  0  0  0  0  0  0  0  0  0
   -4.7270  -21.0087   25.1613 C   0  0  0  0  0  0  0  0  0  0  0  0
   -3.4829  -20.7552   24.0106 C   0  0  0  0  0  0  0  0  0  0  0  0
   -2.8589  -20.8150   22.7710 C   0  0  0  0  0  0  0  0  0  0  0  0
   -1.5639  -20.9696   22.9348 N   0  0  0  0  0  0  0  0  0  0  0  0
   -1.5045  -19.6384   22.8858 C   0  0  0  0  0  0  0  0  0  0  0  0
   -1.0856  -18.2949   21.4196 C   0  0  0  0  0  0  0  0  0  0  0  0
    0.1257  -17.1908   20.3302 C   0  0  0  0  0  0  0  0  0  0  0  0
    0.3137  -17.7116   19.2765 O   0  0  0  0  0  0  0  0  0  0  0  0
    0.7890  -15.9169   20.8786 N   0  0  0  0  0  0  0  0  0  0  0  0
    2.2166  -14.7977   20.1706 C   0  0  0  0  0  0  0  0  0  0  0  0
    3.3370  -13.6548   21.1913 C   0  0  0  0  0  0  0  0  0  0  0  0
    2.7786  -14.8671   18.5935 C   0  0  0  0  0  0  0  0  0  0  0  0
    4.1861  -14.5486   17.9454 N   0  0  0  0  0  0  0  0  0  0  0  0
    5.2361  -13.5937   18.3322 C   0  0  0  0  0  0  0  0  0  0  0  0
    5.3238  -12.8729   19.2848 O   0  0  0  0  0  0  0  0  0  0  0  0
    6.3901  -13.3412   17.3609 C   0  0  0  0  0  0  0  0  0  0  0  0
    7.4917  -12.5682   17.8228 C   0  0  0  0  0  0  0  0  0  0  0  0
    8.4977  -12.1016   16.9639 C   0  0  0  0  0  0  0  0  0  0  0  0
    8.4213  -12.3900   15.6090 C   0  0  0  0  0  0  0  0  0  0  0  0
    7.3557  -13.1564   15.1291 C   0  0  0  0  0  0  0  0  0  0  0  0
    6.3463  -13.6189   15.9927 C   0  0  0  0  0  0  0  0  0  0  0  0
   -2.2603  -20.3172   24.1137 N   0  0  0  0  0  0  0  0  0  0  0  0
   -4.5165  -22.7482   27.2912 H   0  0  0  0  0  0  0  0  0  0  0  0
   -5.5520  -21.4700   27.4964 H   0  0  0  0  0  0  0  0  0  0  0  0
   -5.9799  -22.8266   26.4776 H   0  0  0  0  0  0  0  0  0  0  0  0
   -4.9147  -20.0325   25.5267 H   0  0  0  0  0  0  0  0  0  0  0  0
   -5.3242  -21.4098   24.3678 H   0  0  0  0  0  0  0  0  0  0  0  0
   -3.2689  -20.9376   21.7626 H   0  0  0  0  0  0  0  0  0  0  0  0
   -1.9641  -17.8147   21.0018 H   0  0  0  0  0  0  0  0  0  0  0  0
   -0.2352  -18.0982   21.9943 H   0  0  0  0  0  0  0  0  0  0  0  0
    0.3658  -15.6850   21.7537 H   0  0  0  0  0  0  0  0  0  0  0  0
    2.6460  -15.6237   20.4022 H   0  0  0  0  0  0  0  0  0  0  0  0
    3.2707  -14.3694   22.0199 H   0  0  0  0  0  0  0  0  0  0  0  0
    3.2227  -12.7592   21.8239 H   0  0  0  0  0  0  0  0  0  0  0  0
    4.2686  -13.3260   20.7784 H   0  0  0  0  0  0  0  0  0  0  0  0
    1.9602  -14.3782   18.0589 H   0  0  0  0  0  0  0  0  0  0  0  0
    2.6738  -15.8203   18.1207 H   0  0  0  0  0  0  0  0  0  0  0  0
    4.4017  -14.9275   17.0317 H   0  0  0  0  0  0  0  0  0  0  0  0
    7.5412  -12.2869   18.8743 H   0  0  0  0  0  0  0  0  0  0  0  0
    9.3103  -11.4971   17.3554 H   0  0  0  0  0  0  0  0  0  0  0  0
    9.1793  -12.0170   14.9267 H   0  0  0  0  0  0  0  0  0  0  0  0
    7.2868  -13.3703   14.0648 H   0  0  0  0  0  0  0  0  0  0  0  0
    5.5120  -14.1503   15.5475 H   0  0  0  0  0  0  0  0  0  0  0  0
   -2.0144  -19.8308   24.9647 H   0  0  0  0  0  0  0  0  0  0  0  0
  1  2  1  0
  2  3  1  0
  3  4  2  0
  4  5  1  0
  5  6  2  0
  6  7  1  0
  7  8  1  0
  8  9  2  0
  8 10  1  0
 10 11  1  0
 11 12  1  0
 11 13  1  0
 13 14  1  0
 14 15  1  0
 15 16  2  0
 15 17  1  0
 17 18  2  0
 18 19  1  0
 19 20  2  0
 20 21  1  0
 21 22  2  0
  6 23  1  0
 23  3  1  0
 22 17  1  0
  1 24  1  0
  1 25  1  0
  1 26  1  0
  2 27  1  0
  2 28  1  0
  4 29  1  0
  7 30  1  0
  7 31  1  0
 10 32  1  0
 11 33  1  0
 12 34  1  0
 12 35  1  0
 12 36  1  0
 13 37  1  0
 13 38  1  0
 14 39  1  0
 18 40  1  0
 19 41  1  0
 20 42  1  0
 21 43  1  0
 22 44  1  0
 23 45  1  0
M  END
>  <Energy>  (1037) 
782.30724841897575

>  <compound_id>  (1037) 
54765

>  <target_id>  (1037) 
1

>  <reference_id>  (1037) 
101

>  <inspiration_ids>  (1037) 
[101, 20]

>  <energy_score>  (1037) 
726.8782040668638

>  <distance_score>  (1037) 
11.71312361836293

>  <path>  (1037) 
/opt/xchem-fragalysis-2/maxwin/BulkDock/SCRATCH/511024/C54765-P101/C54765-P101.minimised.mol

>  <scratch_subdir>  (1037) 
/opt/xchem-fragalysis-2/maxwin/BulkDock/SCRATCH/511024/C54765-P101

>  <fragmenstein_runtime>  (1037) 
42.189977169036865

>  <fragmenstein_outcome>  (1037) 
too moved

>  <fragmenstein_mode>  (1037) 
expansion

>  <fragmenstein_error>  (1037) 


$$$$
C54765-P20
     RDKit          3D

 45 46  0  0  0  0  0  0  0  0999 V2000
   -5.8022  -22.0144   27.4689 C   0  0  0  0  0  0  0  0  0  0  0  0
   -6.0243  -20.1653   27.4158 C   0  0  0  0  0  0  0  0  0  0  0  0
   -5.5251  -19.0464   28.7336 C   0  0  0  0  0  0  0  0  0  0  0  0
   -4.8534  -18.8896   29.9595 C   0  0  0  0  0  0  0  0  0  0  0  0
   -3.6269  -18.0917   29.7625 N   0  0  0  0  0  0  0  0  0  0  0  0
   -3.6370  -17.7220   28.4880 C   0  0  0  0  0  0  0  0  0  0  0  0
   -2.8072  -16.9302   27.3817 C   0  0  0  0  0  0  0  0  0  0  0  0
   -2.2487  -17.0908   25.6078 C   0  0  0  0  0  0  0  0  0  0  0  0
   -2.0076  -18.2440   25.3547 O   0  0  0  0  0  0  0  0  0  0  0  0
   -1.9715  -15.4943   24.5690 N   0  0  0  0  0  0  0  0  0  0  0  0
   -1.0216  -15.1472   22.7516 C   0  0  0  0  0  0  0  0  0  0  0  0
   -0.2138  -14.1246   23.3798 C   0  0  0  0  0  0  0  0  0  0  0  0
    0.2896  -15.9659   21.3033 C   0  0  0  0  0  0  0  0  0  0  0  0
    1.9830  -15.0091   20.7234 N   0  0  0  0  0  0  0  0  0  0  0  0
    2.6627  -14.6713   19.0911 C   0  0  0  0  0  0  0  0  0  0  0  0
    2.1748  -14.9699   18.0425 O   0  0  0  0  0  0  0  0  0  0  0  0
    4.3487  -13.8627   18.8009 C   0  0  0  0  0  0  0  0  0  0  0  0
    5.0576  -12.9369   19.6021 C   0  0  0  0  0  0  0  0  0  0  0  0
    6.3327  -12.4025   19.2793 C   0  0  0  0  0  0  0  0  0  0  0  0
    7.0051  -12.8467   18.1553 C   0  0  0  0  0  0  0  0  0  0  0  0
    6.4335  -13.8726   17.4157 C   0  0  0  0  0  0  0  0  0  0  0  0
    5.1632  -14.3820   17.7569 C   0  0  0  0  0  0  0  0  0  0  0  0
   -4.8374  -18.1319   28.1147 N   0  0  0  0  0  0  0  0  0  0  0  0
   -4.8950  -22.3897   27.9228 H   0  0  0  0  0  0  0  0  0  0  0  0
   -6.7234  -22.4684   27.8520 H   0  0  0  0  0  0  0  0  0  0  0  0
   -5.7838  -22.5098   26.5063 H   0  0  0  0  0  0  0  0  0  0  0  0
   -5.6187  -19.8482   26.4649 H   0  0  0  0  0  0  0  0  0  0  0  0
   -7.0858  -20.0395   27.4819 H   0  0  0  0  0  0  0  0  0  0  0  0
   -4.9848  -19.4107   30.9011 H   0  0  0  0  0  0  0  0  0  0  0  0
   -2.5007  -15.9508   27.7869 H   0  0  0  0  0  0  0  0  0  0  0  0
   -1.8659  -17.4372   27.7088 H   0  0  0  0  0  0  0  0  0  0  0  0
   -2.2125  -14.6809   25.1186 H   0  0  0  0  0  0  0  0  0  0  0  0
   -1.7044  -14.7753   21.9442 H   0  0  0  0  0  0  0  0  0  0  0  0
    0.8036  -14.3109   23.7390 H   0  0  0  0  0  0  0  0  0  0  0  0
   -0.6823  -14.0755   24.3341 H   0  0  0  0  0  0  0  0  0  0  0  0
   -0.2368  -13.2572   22.7734 H   0  0  0  0  0  0  0  0  0  0  0  0
   -0.2848  -16.1694   20.3541 H   0  0  0  0  0  0  0  0  0  0  0  0
    0.3170  -17.0664   21.3238 H   0  0  0  0  0  0  0  0  0  0  0  0
    2.5726  -14.5607   21.4396 H   0  0  0  0  0  0  0  0  0  0  0  0
    4.6052  -12.6420   20.5372 H   0  0  0  0  0  0  0  0  0  0  0  0
    6.7748  -11.6488   19.9231 H   0  0  0  0  0  0  0  0  0  0  0  0
    7.9733  -12.4394   17.8852 H   0  0  0  0  0  0  0  0  0  0  0  0
    6.9546  -14.2811   16.5540 H   0  0  0  0  0  0  0  0  0  0  0  0
    4.7662  -15.1751   17.1327 H   0  0  0  0  0  0  0  0  0  0  0  0
   -4.9519  -18.1686   27.1433 H   0  0  0  0  0  0  0  0  0  0  0  0
  1  2  1  0
  2  3  1  0
  3  4  2  0
  4  5  1  0
  5  6  2  0
  6  7  1  0
  7  8  1  0
  8  9  2  0
  8 10  1  0
 10 11  1  0
 11 12  1  0
 11 13  1  0
 13 14  1  0
 14 15  1  0
 15 16  2  0
 15 17  1  0
 17 18  2  0
 18 19  1  0
 19 20  2  0
 20 21  1  0
 21 22  2  0
  6 23  1  0
 23  3  1  0
 22 17  1  0
  1 24  1  0
  1 25  1  0
  1 26  1  0
  2 27  1  0
  2 28  1  0
  4 29  1  0
  7 30  1  0
  7 31  1  0
 10 32  1  0
 11 33  1  0
 12 34  1  0
 12 35  1  0
 12 36  1  0
 13 37  1  0
 13 38  1  0
 14 39  1  0
 18 40  1  0
 19 41  1  0
 20 42  1  0
 21 43  1  0
 22 44  1  0
 23 45  1  0
M  END
>  <Energy>  (1038) 
757.59015276778848

>  <compound_id>  (1038) 
54765

>  <target_id>  (1038) 
1

>  <reference_id>  (1038) 
20

>  <inspiration_ids>  (1038) 
[101, 20]

>  <energy_score>  (1038) 
702.1611084156684

>  <distance_score>  (1038) 
12.596016857576924

>  <path>  (1038) 
/opt/xchem-fragalysis-2/maxwin/BulkDock/SCRATCH/511024/C54765-P20/C54765-P20.minimised.mol

>  <scratch_subdir>  (1038) 
/opt/xchem-fragalysis-2/maxwin/BulkDock/SCRATCH/511024/C54765-P20

>  <fragmenstein_runtime>  (1038) 
26.823111057281494

>  <fragmenstein_outcome>  (1038) 
too moved

>  <fragmenstein_mode>  (1038) 
expansion

>  <fragmenstein_error>  (1038) 


$$$$
C54766-P101
     RDKit          3D

 42 43  0  0  0  0  0  0  0  0999 V2000
  -10.7648  -21.2769   29.2585 C   0  0  0  0  0  0  0  0  0  0  0  0
   -9.6100  -20.9338   27.9791 C   0  0  0  0  0  0  0  0  0  0  0  0
   -7.6807  -20.0693   27.8714 C   0  0  0  0  0  0  0  0  0  0  0  0
   -8.0739  -18.3412   28.1532 C   0  0  0  0  0  0  0  0  0  0  0  0
   -6.7097  -17.4273   28.0866 N   0  0  0  0  0  0  0  0  0  0  0  0
   -5.2216  -18.1810   27.5764 C   0  0  0  0  0  0  0  0  0  0  0  0
   -3.4350  -17.1493   27.3792 C   0  0  0  0  0  0  0  0  0  0  0  0
   -1.5285  -17.1478   27.6196 C   0  0  0  0  0  0  0  0  0  0  0  0
   -1.0331  -18.1302   27.0610 O   0  0  0  0  0  0  0  0  0  0  0  0
   -0.6624  -15.9638   28.6711 N   0  0  0  0  0  0  0  0  0  0  0  0
    1.0156  -15.9754   29.2937 C   0  0  0  0  0  0  0  0  0  0  0  0
    1.1187  -16.8294   30.6839 C   0  0  0  0  0  0  0  0  0  0  0  0
    2.4950  -16.1098   28.6281 C   0  0  0  0  0  0  0  0  0  0  0  0
    3.4920  -15.0146   28.3303 N   0  0  0  0  0  0  0  0  0  0  0  0
    4.3844  -14.2824   29.2003 C   0  0  0  0  0  0  0  0  0  0  0  0
    4.5021  -14.3029   30.3910 O   0  0  0  0  0  0  0  0  0  0  0  0
    5.3677  -13.4182   28.4445 C   0  0  0  0  0  0  0  0  0  0  0  0
    6.0390  -12.2582   28.8379 C   0  0  0  0  0  0  0  0  0  0  0  0
    6.8491  -11.8113   27.7614 C   0  0  0  0  0  0  0  0  0  0  0  0
    6.6775  -12.7391   26.7682 C   0  0  0  0  0  0  0  0  0  0  0  0
    5.7942  -13.7136   27.1536 O   0  0  0  0  0  0  0  0  0  0  0  0
   -6.0475  -19.7268   26.9857 N   0  0  0  0  0  0  0  0  0  0  0  0
  -11.0355  -22.3423   29.1798 H   0  0  0  0  0  0  0  0  0  0  0  0
  -10.4668  -21.0316   30.2719 H   0  0  0  0  0  0  0  0  0  0  0  0
  -11.7617  -20.8520   29.0995 H   0  0  0  0  0  0  0  0  0  0  0  0
  -10.3298  -20.9765   27.1446 H   0  0  0  0  0  0  0  0  0  0  0  0
   -9.2535  -22.0075   28.3102 H   0  0  0  0  0  0  0  0  0  0  0  0
   -9.0093  -17.8054   28.2537 H   0  0  0  0  0  0  0  0  0  0  0  0
   -3.5914  -16.3663   28.1106 H   0  0  0  0  0  0  0  0  0  0  0  0
   -3.1629  -16.9950   26.3354 H   0  0  0  0  0  0  0  0  0  0  0  0
   -1.3013  -15.2031   28.9287 H   0  0  0  0  0  0  0  0  0  0  0  0
    0.8854  -15.1816   30.0007 H   0  0  0  0  0  0  0  0  0  0  0  0
    0.3936  -16.4445   31.4165 H   0  0  0  0  0  0  0  0  0  0  0  0
    0.9226  -17.8956   30.6047 H   0  0  0  0  0  0  0  0  0  0  0  0
    2.0974  -16.6894   31.1596 H   0  0  0  0  0  0  0  0  0  0  0  0
    2.4447  -16.7748   27.7709 H   0  0  0  0  0  0  0  0  0  0  0  0
    3.1019  -16.6442   29.3647 H   0  0  0  0  0  0  0  0  0  0  0  0
    3.7280  -14.8067   27.3641 H   0  0  0  0  0  0  0  0  0  0  0  0
    5.9305  -11.7954   29.8105 H   0  0  0  0  0  0  0  0  0  0  0  0
    7.4893  -10.9408   27.7322 H   0  0  0  0  0  0  0  0  0  0  0  0
    7.0867  -12.8301   25.7759 H   0  0  0  0  0  0  0  0  0  0  0  0
   -5.4289  -20.5072   27.0762 H   0  0  0  0  0  0  0  0  0  0  0  0
  1  2  1  0
  2  3  1  0
  3  4  2  0
  4  5  1  0
  5  6  2  0
  6  7  1  0
  7  8  1  0
  8  9  2  0
  8 10  1  0
 10 11  1  0
 11 12  1  0
 11 13  1  0
 13 14  1  0
 14 15  1  0
 15 16  2  0
 15 17  1  0
 17 18  2  0
 18 19  1  0
 19 20  2  0
 20 21  1  0
  6 22  1  0
 22  3  1  0
 21 17  1  0
  1 23  1  0
  1 24  1  0
  1 25  1  0
  2 26  1  0
  2 27  1  0
  4 28  1  0
  7 29  1  0
  7 30  1  0
 10 31  1  0
 11 32  1  0
 12 33  1  0
 12 34  1  0
 12 35  1  0
 13 36  1  0
 13 37  1  0
 14 38  1  0
 18 39  1  0
 19 40  1  0
 20 41  1  0
 22 42  1  0
M  END
>  <Energy>  (1039) 
801.4575591021769

>  <compound_id>  (1039) 
54766

>  <target_id>  (1039) 
1

>  <reference_id>  (1039) 
101

>  <inspiration_ids>  (1039) 
[101, 20]

>  <energy_score>  (1039) 
760.017369459928

>  <distance_score>  (1039) 
14.214476704265257

>  <path>  (1039) 
/opt/xchem-fragalysis-2/maxwin/BulkDock/SCRATCH/511024/C54766-P101/C54766-P101.minimised.mol

>  <scratch_subdir>  (1039) 
/opt/xchem-fragalysis-2/maxwin/BulkDock/SCRATCH/511024/C54766-P101

>  <fragmenstein_runtime>  (1039) 
28.91793966293335

>  <fragmenstein_outcome>  (1039) 
too moved

>  <fragmenstein_mode>  (1039) 
expansion

>  <fragmenstein_error>  (1039) 


$$$$
C54766-P20
     RDKit          3D

 42 43  0  0  0  0  0  0  0  0999 V2000
   -6.5096  -22.8499   26.9036 C   0  0  0  0  0  0  0  0  0  0  0  0
   -5.3649  -21.8728   26.9185 C   0  0  0  0  0  0  0  0  0  0  0  0
   -4.6414  -20.9083   25.5360 C   0  0  0  0  0  0  0  0  0  0  0  0
   -4.7628  -21.0022   24.3055 C   0  0  0  0  0  0  0  0  0  0  0  0
   -3.2204  -20.7887   23.2846 N   0  0  0  0  0  0  0  0  0  0  0  0
   -2.0286  -20.0728   23.3504 C   0  0  0  0  0  0  0  0  0  0  0  0
   -1.2288  -18.7018   21.8626 C   0  0  0  0  0  0  0  0  0  0  0  0
   -0.2032  -17.0740   21.0155 C   0  0  0  0  0  0  0  0  0  0  0  0
   -0.2274  -16.1659   21.7458 O   0  0  0  0  0  0  0  0  0  0  0  0
    0.7138  -16.8604   19.4726 N   0  0  0  0  0  0  0  0  0  0  0  0
    1.8989  -15.3016   18.7369 C   0  0  0  0  0  0  0  0  0  0  0  0
    2.2979  -14.6839   20.0526 C   0  0  0  0  0  0  0  0  0  0  0  0
    2.1837  -14.5092   17.2073 C   0  0  0  0  0  0  0  0  0  0  0  0
    3.3545  -13.5990   17.0396 N   0  0  0  0  0  0  0  0  0  0  0  0
    4.7595  -13.8226   17.2450 C   0  0  0  0  0  0  0  0  0  0  0  0
    5.3421  -14.7711   17.6789 O   0  0  0  0  0  0  0  0  0  0  0  0
    5.5447  -12.6510   16.7859 C   0  0  0  0  0  0  0  0  0  0  0  0
    6.9153  -12.4308   16.7353 C   0  0  0  0  0  0  0  0  0  0  0  0
    7.1245  -11.1756   16.1148 C   0  0  0  0  0  0  0  0  0  0  0  0
    5.8735  -10.6672   15.8625 C   0  0  0  0  0  0  0  0  0  0  0  0
    4.9103  -11.5398   16.2700 O   0  0  0  0  0  0  0  0  0  0  0  0
   -3.3559  -19.9894   24.7587 N   0  0  0  0  0  0  0  0  0  0  0  0
   -6.4713  -23.4254   25.9831 H   0  0  0  0  0  0  0  0  0  0  0  0
   -6.3833  -23.3859   27.8287 H   0  0  0  0  0  0  0  0  0  0  0  0
   -7.5032  -22.4396   27.0909 H   0  0  0  0  0  0  0  0  0  0  0  0
   -5.8124  -21.1216   27.5218 H   0  0  0  0  0  0  0  0  0  0  0  0
   -4.7382  -22.5960   27.4086 H   0  0  0  0  0  0  0  0  0  0  0  0
   -5.5886  -21.3077   23.5638 H   0  0  0  0  0  0  0  0  0  0  0  0
   -1.6788  -18.8622   20.8724 H   0  0  0  0  0  0  0  0  0  0  0  0
   -0.2695  -18.6260   22.3187 H   0  0  0  0  0  0  0  0  0  0  0  0
    0.7181  -17.7695   18.9715 H   0  0  0  0  0  0  0  0  0  0  0  0
    2.9070  -15.7011   18.4174 H   0  0  0  0  0  0  0  0  0  0  0  0
    2.5477  -15.4570   20.6036 H   0  0  0  0  0  0  0  0  0  0  0  0
    1.5445  -14.9301   20.7631 H   0  0  0  0  0  0  0  0  0  0  0  0
    2.9062  -13.8787   20.4490 H   0  0  0  0  0  0  0  0  0  0  0  0
    2.4291  -15.2678   16.4450 H   0  0  0  0  0  0  0  0  0  0  0  0
    1.2794  -14.0296   16.8306 H   0  0  0  0  0  0  0  0  0  0  0  0
    3.2278  -12.7040   16.5713 H   0  0  0  0  0  0  0  0  0  0  0  0
    7.6656  -13.1336   17.0731 H   0  0  0  0  0  0  0  0  0  0  0  0
    8.0715  -10.7097   15.8778 H   0  0  0  0  0  0  0  0  0  0  0  0
    5.5149   -9.7532   15.4092 H   0  0  0  0  0  0  0  0  0  0  0  0
   -2.9472  -19.4019   25.4986 H   0  0  0  0  0  0  0  0  0  0  0  0
  1  2  1  0
  2  3  1  0
  3  4  2  0
  4  5  1  0
  5  6  2  0
  6  7  1  0
  7  8  1  0
  8  9  2  0
  8 10  1  0
 10 11  1  0
 11 12  1  0
 11 13  1  0
 13 14  1  0
 14 15  1  0
 15 16  2  0
 15 17  1  0
 17 18  2  0
 18 19  1  0
 19 20  2  0
 20 21  1  0
  6 22  1  0
 22  3  1  0
 21 17  1  0
  1 23  1  0
  1 24  1  0
  1 25  1  0
  2 26  1  0
  2 27  1  0
  4 28  1  0
  7 29  1  0
  7 30  1  0
 10 31  1  0
 11 32  1  0
 12 33  1  0
 12 34  1  0
 12 35  1  0
 13 36  1  0
 13 37  1  0
 14 38  1  0
 18 39  1  0
 19 40  1  0
 20 41  1  0
 22 42  1  0
M  END
>  <Energy>  (1040) 
1079.0236847600547

>  <compound_id>  (1040) 
54766

>  <target_id>  (1040) 
1

>  <reference_id>  (1040) 
20

>  <inspiration_ids>  (1040) 
[101, 20]

>  <energy_score>  (1040) 
1037.5834951177812

>  <distance_score>  (1040) 
11.20795909905928

>  <path>  (1040) 
/opt/xchem-fragalysis-2/maxwin/BulkDock/SCRATCH/511024/C54766-P20/C54766-P20.minimised.mol

>  <scratch_subdir>  (1040) 
/opt/xchem-fragalysis-2/maxwin/BulkDock/SCRATCH/511024/C54766-P20

>  <fragmenstein_runtime>  (1040) 
31.2075412273407

>  <fragmenstein_outcome>  (1040) 
too moved

>  <fragmenstein_mode>  (1040) 
expansion

>  <fragmenstein_error>  (1040) 


$$$$
C14978-P101
     RDKit          3D

 42 43  0  0  0  0  0  0  0  0999 V2000
   -6.7808  -22.8430   27.1544 C   0  0  0  0  0  0  0  0  0  0  0  0
   -5.4571  -22.2219   26.8884 C   0  0  0  0  0  0  0  0  0  0  0  0
   -4.8608  -21.1266   25.5742 C   0  0  0  0  0  0  0  0  0  0  0  0
   -5.0989  -21.1558   24.2837 C   0  0  0  0  0  0  0  0  0  0  0  0
   -3.9430  -20.7323   23.5837 N   0  0  0  0  0  0  0  0  0  0  0  0
   -2.7555  -20.5252   23.9419 C   0  0  0  0  0  0  0  0  0  0  0  0
   -1.5575  -19.4949   22.8045 C   0  0  0  0  0  0  0  0  0  0  0  0
   -1.3329  -18.2234   21.1566 C   0  0  0  0  0  0  0  0  0  0  0  0
   -2.3447  -17.9948   20.5626 O   0  0  0  0  0  0  0  0  0  0  0  0
    0.1295  -17.4830   20.7868 N   0  0  0  0  0  0  0  0  0  0  0  0
    0.5548  -16.1533   19.5932 C   0  0  0  0  0  0  0  0  0  0  0  0
   -1.3358  -15.7971   19.5143 C   0  0  0  0  0  0  0  0  0  0  0  0
    1.7206  -14.8937   18.2437 C   0  0  0  0  0  0  0  0  0  0  0  0
    1.1564  -14.1565   16.4753 N   0  0  0  0  0  0  0  0  0  0  0  0
    1.8775  -12.7587   15.3974 C   0  0  0  0  0  0  0  0  0  0  0  0
    2.8597  -11.9559   15.7304 O   0  0  0  0  0  0  0  0  0  0  0  0
    1.4180  -12.4651   13.7164 C   0  0  0  0  0  0  0  0  0  0  0  0
    2.4045  -11.8194   12.9165 C   0  0  0  0  0  0  0  0  0  0  0  0
    1.9748  -11.4711   11.6199 C   0  0  0  0  0  0  0  0  0  0  0  0
    0.7132  -11.9611   11.3980 C   0  0  0  0  0  0  0  0  0  0  0  0
    0.1013  -12.8671   12.7267 S   0  0  0  0  0  0  0  0  0  0  0  0
   -4.0402  -19.9749   25.0128 N   0  0  0  0  0  0  0  0  0  0  0  0
   -7.5344  -22.2437   27.6451 H   0  0  0  0  0  0  0  0  0  0  0  0
   -6.5146  -23.5596   27.8955 H   0  0  0  0  0  0  0  0  0  0  0  0
   -7.1449  -23.2635   26.2372 H   0  0  0  0  0  0  0  0  0  0  0  0
   -5.4240  -21.6138   27.7347 H   0  0  0  0  0  0  0  0  0  0  0  0
   -4.9416  -23.1797   26.9601 H   0  0  0  0  0  0  0  0  0  0  0  0
   -5.9120  -21.4868   23.5780 H   0  0  0  0  0  0  0  0  0  0  0  0
   -0.6329  -19.6637   23.3406 H   0  0  0  0  0  0  0  0  0  0  0  0
   -1.9588  -20.4056   22.4206 H   0  0  0  0  0  0  0  0  0  0  0  0
    0.8330  -17.8872   21.3464 H   0  0  0  0  0  0  0  0  0  0  0  0
    1.0544  -15.7718   20.4857 H   0  0  0  0  0  0  0  0  0  0  0  0
   -1.8302  -15.5743   20.4457 H   0  0  0  0  0  0  0  0  0  0  0  0
   -1.5798  -15.0123   18.7974 H   0  0  0  0  0  0  0  0  0  0  0  0
   -1.8543  -16.6732   19.1318 H   0  0  0  0  0  0  0  0  0  0  0  0
    2.5014  -14.3218   18.6951 H   0  0  0  0  0  0  0  0  0  0  0  0
    2.5157  -15.5820   17.8716 H   0  0  0  0  0  0  0  0  0  0  0  0
    0.3438  -14.5618   15.9999 H   0  0  0  0  0  0  0  0  0  0  0  0
    3.3727  -11.5418   13.3242 H   0  0  0  0  0  0  0  0  0  0  0  0
    2.5512  -10.9157   10.8913 H   0  0  0  0  0  0  0  0  0  0  0  0
    0.1198  -11.8790   10.4978 H   0  0  0  0  0  0  0  0  0  0  0  0
   -3.5454  -19.4216   25.6778 H   0  0  0  0  0  0  0  0  0  0  0  0
  1  2  1  0
  2  3  1  0
  3  4  2  0
  4  5  1  0
  5  6  2  0
  6  7  1  0
  7  8  1  0
  8  9  2  0
  8 10  1  0
 10 11  1  0
 11 12  1  0
 11 13  1  0
 13 14  1  0
 14 15  1  0
 15 16  2  0
 15 17  1  0
 17 18  2  0
 18 19  1  0
 19 20  2  0
 20 21  1  0
  6 22  1  0
 22  3  1  0
 21 17  1  0
  1 23  1  0
  1 24  1  0
  1 25  1  0
  2 26  1  0
  2 27  1  0
  4 28  1  0
  7 29  1  0
  7 30  1  0
 10 31  1  0
 11 32  1  0
 12 33  1  0
 12 34  1  0
 12 35  1  0
 13 36  1  0
 13 37  1  0
 14 38  1  0
 18 39  1  0
 19 40  1  0
 20 41  1  0
 22 42  1  0
M  END
>  <Energy>  (1041) 
968.27649894282706

>  <compound_id>  (1041) 
14978

>  <target_id>  (1041) 
1

>  <reference_id>  (1041) 
101

>  <inspiration_ids>  (1041) 
[101, 20]

>  <energy_score>  (1041) 
917.5410200788052

>  <distance_score>  (1041) 
11.948629523796777

>  <path>  (1041) 
/opt/xchem-fragalysis-2/maxwin/BulkDock/SCRATCH/511024/C14978-P101/C14978-P101.minimised.mol

>  <scratch_subdir>  (1041) 
/opt/xchem-fragalysis-2/maxwin/BulkDock/SCRATCH/511024/C14978-P101

>  <fragmenstein_runtime>  (1041) 
32.87500596046448

>  <fragmenstein_outcome>  (1041) 
too moved

>  <fragmenstein_mode>  (1041) 
expansion

>  <fragmenstein_error>  (1041) 


$$$$
C14978-P20
     RDKit          3D

 42 43  0  0  0  0  0  0  0  0999 V2000
   -7.0700  -22.8812   22.2009 C   0  0  0  0  0  0  0  0  0  0  0  0
   -7.2567  -22.7503   20.7078 C   0  0  0  0  0  0  0  0  0  0  0  0
   -7.6615  -21.3686   20.3153 C   0  0  0  0  0  0  0  0  0  0  0  0
   -8.7774  -20.6218   20.6137 C   0  0  0  0  0  0  0  0  0  0  0  0
   -8.7287  -19.4002   19.9842 N   0  0  0  0  0  0  0  0  0  0  0  0
   -7.6023  -19.3797   19.2816 C   0  0  0  0  0  0  0  0  0  0  0  0
   -7.1459  -18.2056   18.4186 C   0  0  0  0  0  0  0  0  0  0  0  0
   -5.9804  -18.4150   17.4035 C   0  0  0  0  0  0  0  0  0  0  0  0
   -5.3439  -19.4331   17.4159 O   0  0  0  0  0  0  0  0  0  0  0  0
   -5.8336  -17.1998   16.5773 N   0  0  0  0  0  0  0  0  0  0  0  0
   -4.9100  -16.8947   15.4303 C   0  0  0  0  0  0  0  0  0  0  0  0
   -5.5300  -17.4067   14.1334 C   0  0  0  0  0  0  0  0  0  0  0  0
   -4.5993  -15.3600   15.3208 C   0  0  0  0  0  0  0  0  0  0  0  0
   -3.5476  -14.7988   14.4513 N   0  0  0  0  0  0  0  0  0  0  0  0
   -3.4783  -13.5359   13.7369 C   0  0  0  0  0  0  0  0  0  0  0  0
   -4.2933  -12.6675   13.6101 O   0  0  0  0  0  0  0  0  0  0  0  0
   -2.1378  -13.1930   13.1319 C   0  0  0  0  0  0  0  0  0  0  0  0
   -1.6942  -11.8959   12.8246 C   0  0  0  0  0  0  0  0  0  0  0  0
   -0.3502  -11.8208   12.3410 C   0  0  0  0  0  0  0  0  0  0  0  0
    0.1908  -13.0770   12.2191 C   0  0  0  0  0  0  0  0  0  0  0  0
   -0.9209  -14.3130   12.6914 S   0  0  0  0  0  0  0  0  0  0  0  0
   -6.9092  -20.5540   19.4935 N   0  0  0  0  0  0  0  0  0  0  0  0
   -6.4355  -22.0606   22.5373 H   0  0  0  0  0  0  0  0  0  0  0  0
   -6.5685  -23.8189   22.4506 H   0  0  0  0  0  0  0  0  0  0  0  0
   -8.0281  -22.8326   22.7246 H   0  0  0  0  0  0  0  0  0  0  0  0
   -7.9929  -23.4725   20.3438 H   0  0  0  0  0  0  0  0  0  0  0  0
   -6.3105  -23.0025   20.2126 H   0  0  0  0  0  0  0  0  0  0  0  0
   -9.6170  -20.9087   21.2340 H   0  0  0  0  0  0  0  0  0  0  0  0
   -6.8470  -17.3976   19.0960 H   0  0  0  0  0  0  0  0  0  0  0  0
   -8.0211  -17.8654   17.8510 H   0  0  0  0  0  0  0  0  0  0  0  0
   -6.5998  -16.5668   16.7780 H   0  0  0  0  0  0  0  0  0  0  0  0
   -4.0045  -17.4725   15.6082 H   0  0  0  0  0  0  0  0  0  0  0  0
   -5.7315  -18.4816   14.1969 H   0  0  0  0  0  0  0  0  0  0  0  0
   -6.4821  -16.9061   13.9258 H   0  0  0  0  0  0  0  0  0  0  0  0
   -4.8596  -17.2371   13.2848 H   0  0  0  0  0  0  0  0  0  0  0  0
   -4.3349  -15.0034   16.3168 H   0  0  0  0  0  0  0  0  0  0  0  0
   -5.5252  -14.8290   15.0653 H   0  0  0  0  0  0  0  0  0  0  0  0
   -2.6351  -15.2516   14.4151 H   0  0  0  0  0  0  0  0  0  0  0  0
   -2.3265  -11.0288   12.9829 H   0  0  0  0  0  0  0  0  0  0  0  0
    0.1692  -10.9073   12.0809 H   0  0  0  0  0  0  0  0  0  0  0  0
    1.1753  -13.3522   11.8676 H   0  0  0  0  0  0  0  0  0  0  0  0
   -6.0167  -20.7758   19.0676 H   0  0  0  0  0  0  0  0  0  0  0  0
  1  2  1  0
  2  3  1  0
  3  4  2  0
  4  5  1  0
  5  6  2  0
  6  7  1  0
  7  8  1  0
  8  9  2  0
  8 10  1  0
 10 11  1  0
 11 12  1  0
 11 13  1  0
 13 14  1  0
 14 15  1  0
 15 16  2  0
 15 17  1  0
 17 18  2  0
 18 19  1  0
 19 20  2  0
 20 21  1  0
  6 22  1  0
 22  3  1  0
 21 17  1  0
  1 23  1  0
  1 24  1  0
  1 25  1  0
  2 26  1  0
  2 27  1  0
  4 28  1  0
  7 29  1  0
  7 30  1  0
 10 31  1  0
 11 32  1  0
 12 33  1  0
 12 34  1  0
 12 35  1  0
 13 36  1  0
 13 37  1  0
 14 38  1  0
 18 39  1  0
 19 40  1  0
 20 41  1  0
 22 42  1  0
M  END
>  <Energy>  (1042) 
27.564419350465993

>  <compound_id>  (1042) 
14978

>  <target_id>  (1042) 
1

>  <reference_id>  (1042) 
20

>  <inspiration_ids>  (1042) 
[101, 20]

>  <energy_score>  (1042) 
-23.171059513535056

>  <distance_score>  (1042) 
14.014479164913473

>  <path>  (1042) 
/opt/xchem-fragalysis-2/maxwin/BulkDock/SCRATCH/511024/C14978-P20/C14978-P20.minimised.mol

>  <scratch_subdir>  (1042) 
/opt/xchem-fragalysis-2/maxwin/BulkDock/SCRATCH/511024/C14978-P20

>  <fragmenstein_runtime>  (1042) 
61.9679479598999

>  <fragmenstein_outcome>  (1042) 
too moved

>  <fragmenstein_mode>  (1042) 
expansion

>  <fragmenstein_error>  (1042) 


$$$$
C54767-P101
     RDKit          3D

 42 43  0  0  0  0  0  0  0  0999 V2000
   -5.0227  -22.5236   25.6737 C   0  0  0  0  0  0  0  0  0  0  0  0
   -4.4063  -21.0142   24.7163 C   0  0  0  0  0  0  0  0  0  0  0  0
   -2.8012  -20.6965   23.7037 C   0  0  0  0  0  0  0  0  0  0  0  0
   -1.6537  -21.1765   23.2531 C   0  0  0  0  0  0  0  0  0  0  0  0
   -1.8634  -20.0407   22.3647 N   0  0  0  0  0  0  0  0  0  0  0  0
   -1.2213  -18.6267   21.8184 C   0  0  0  0  0  0  0  0  0  0  0  0
   -0.1720  -17.4650   20.5623 C   0  0  0  0  0  0  0  0  0  0  0  0
    1.0869  -15.9068   20.2929 C   0  0  0  0  0  0  0  0  0  0  0  0
    1.1294  -15.2728   21.2801 O   0  0  0  0  0  0  0  0  0  0  0  0
    2.3180  -15.3408   18.8770 N   0  0  0  0  0  0  0  0  0  0  0  0
    3.6898  -14.0417   18.8217 C   0  0  0  0  0  0  0  0  0  0  0  0
    4.6105  -14.8825   17.7252 C   0  0  0  0  0  0  0  0  0  0  0  0
    5.1265  -13.3841   19.5261 C   0  0  0  0  0  0  0  0  0  0  0  0
    5.9388  -12.5522   18.6144 N   0  0  0  0  0  0  0  0  0  0  0  0
    7.3455  -12.5645   18.3324 C   0  0  0  0  0  0  0  0  0  0  0  0
    8.2331  -13.1979   18.8219 O   0  0  0  0  0  0  0  0  0  0  0  0
    7.7185  -11.7181   17.1771 C   0  0  0  0  0  0  0  0  0  0  0  0
    6.9519  -11.1659   16.1046 C   0  0  0  0  0  0  0  0  0  0  0  0
    7.8469  -10.6537   15.1895 C   0  0  0  0  0  0  0  0  0  0  0  0
    9.1170  -10.7923   15.6416 O   0  0  0  0  0  0  0  0  0  0  0  0
    9.0335  -11.4284   16.8375 C   0  0  0  0  0  0  0  0  0  0  0  0
   -1.4353  -19.6022   23.2697 N   0  0  0  0  0  0  0  0  0  0  0  0
   -5.4906  -23.2283   24.9707 H   0  0  0  0  0  0  0  0  0  0  0  0
   -5.5327  -22.2291   26.5770 H   0  0  0  0  0  0  0  0  0  0  0  0
   -4.5000  -23.2501   26.3301 H   0  0  0  0  0  0  0  0  0  0  0  0
   -5.2334  -21.0343   24.0212 H   0  0  0  0  0  0  0  0  0  0  0  0
   -4.5804  -20.1623   25.3398 H   0  0  0  0  0  0  0  0  0  0  0  0
   -0.8618  -21.9010   23.1971 H   0  0  0  0  0  0  0  0  0  0  0  0
    0.5724  -18.1170   20.9155 H   0  0  0  0  0  0  0  0  0  0  0  0
   -0.8608  -17.4920   19.7272 H   0  0  0  0  0  0  0  0  0  0  0  0
    2.2604  -15.9931   18.1243 H   0  0  0  0  0  0  0  0  0  0  0  0
    3.5460  -13.0224   18.4552 H   0  0  0  0  0  0  0  0  0  0  0  0
    5.2989  -14.2451   17.1617 H   0  0  0  0  0  0  0  0  0  0  0  0
    5.2185  -15.6447   18.2201 H   0  0  0  0  0  0  0  0  0  0  0  0
    4.0051  -15.3615   16.9621 H   0  0  0  0  0  0  0  0  0  0  0  0
    4.9151  -12.8189   20.4318 H   0  0  0  0  0  0  0  0  0  0  0  0
    5.8588  -14.1719   19.6587 H   0  0  0  0  0  0  0  0  0  0  0  0
    5.4966  -11.8272   18.0601 H   0  0  0  0  0  0  0  0  0  0  0  0
    5.8814  -11.2021   15.9671 H   0  0  0  0  0  0  0  0  0  0  0  0
    7.7429  -10.1690   14.2295 H   0  0  0  0  0  0  0  0  0  0  0  0
    9.9807  -11.6541   17.3082 H   0  0  0  0  0  0  0  0  0  0  0  0
   -0.4987  -19.8042   23.6555 H   0  0  0  0  0  0  0  0  0  0  0  0
  1  2  1  0
  2  3  1  0
  3  4  2  0
  4  5  1  0
  5  6  2  0
  6  7  1  0
  7  8  1  0
  8  9  2  0
  8 10  1  0
 10 11  1  0
 11 12  1  0
 11 13  1  0
 13 14  1  0
 14 15  1  0
 15 16  2  0
 15 17  1  0
 17 18  1  0
 18 19  2  0
 19 20  1  0
 20 21  1  0
  6 22  1  0
 22  3  1  0
 21 17  2  0
  1 23  1  0
  1 24  1  0
  1 25  1  0
  2 26  1  0
  2 27  1  0
  4 28  1  0
  7 29  1  0
  7 30  1  0
 10 31  1  0
 11 32  1  0
 12 33  1  0
 12 34  1  0
 12 35  1  0
 13 36  1  0
 13 37  1  0
 14 38  1  0
 18 39  1  0
 19 40  1  0
 21 41  1  0
 22 42  1  0
M  END
>  <Energy>  (1043) 
1093.1628668007181

>  <compound_id>  (1043) 
54767

>  <target_id>  (1043) 
1

>  <reference_id>  (1043) 
101

>  <inspiration_ids>  (1043) 
[101, 20]

>  <energy_score>  (1043) 
1061.321785460956

>  <distance_score>  (1043) 
10.965071701972718

>  <path>  (1043) 
/opt/xchem-fragalysis-2/maxwin/BulkDock/SCRATCH/511024/C54767-P101/C54767-P101.minimised.mol

>  <scratch_subdir>  (1043) 
/opt/xchem-fragalysis-2/maxwin/BulkDock/SCRATCH/511024/C54767-P101

>  <fragmenstein_runtime>  (1043) 
28.21804428100586

>  <fragmenstein_outcome>  (1043) 
too moved

>  <fragmenstein_mode>  (1043) 
expansion

>  <fragmenstein_error>  (1043) 


$$$$
C54767-P20
     RDKit          3D

 42 43  0  0  0  0  0  0  0  0999 V2000
   -9.0733  -23.3040   27.8894 C   0  0  0  0  0  0  0  0  0  0  0  0
   -7.5487  -22.6265   27.3305 C   0  0  0  0  0  0  0  0  0  0  0  0
   -5.9837  -22.7825   26.7017 C   0  0  0  0  0  0  0  0  0  0  0  0
   -5.3964  -22.9695   25.4795 C   0  0  0  0  0  0  0  0  0  0  0  0
   -4.7622  -21.5203   24.9693 N   0  0  0  0  0  0  0  0  0  0  0  0
   -4.5896  -20.5143   25.8444 C   0  0  0  0  0  0  0  0  0  0  0  0
   -2.8433  -19.3998   26.0603 C   0  0  0  0  0  0  0  0  0  0  0  0
   -1.9563  -17.8804   25.9874 C   0  0  0  0  0  0  0  0  0  0  0  0
   -0.9521  -17.9760   26.6597 O   0  0  0  0  0  0  0  0  0  0  0  0
   -2.3232  -16.4306   24.9514 N   0  0  0  0  0  0  0  0  0  0  0  0
   -1.2492  -14.8565   24.5356 C   0  0  0  0  0  0  0  0  0  0  0  0
   -2.0033  -14.0017   25.5451 C   0  0  0  0  0  0  0  0  0  0  0  0
    0.7121  -14.1773   24.1639 C   0  0  0  0  0  0  0  0  0  0  0  0
    2.4700  -13.3249   24.5960 N   0  0  0  0  0  0  0  0  0  0  0  0
    4.0867  -14.0843   25.1692 C   0  0  0  0  0  0  0  0  0  0  0  0
    4.2914  -15.2687   25.2621 O   0  0  0  0  0  0  0  0  0  0  0  0
    5.5173  -13.1897   25.8169 C   0  0  0  0  0  0  0  0  0  0  0  0
    6.2286  -13.6615   26.9776 C   0  0  0  0  0  0  0  0  0  0  0  0
    7.3500  -12.8790   27.1558 C   0  0  0  0  0  0  0  0  0  0  0  0
    7.4618  -11.9679   26.1707 O   0  0  0  0  0  0  0  0  0  0  0  0
    6.4142  -12.1886   25.3503 C   0  0  0  0  0  0  0  0  0  0  0  0
   -5.1678  -21.7179   26.9476 N   0  0  0  0  0  0  0  0  0  0  0  0
   -9.7760  -22.5218   28.2106 H   0  0  0  0  0  0  0  0  0  0  0  0
   -9.0421  -24.0604   28.6878 H   0  0  0  0  0  0  0  0  0  0  0  0
   -9.6180  -23.8308   27.0843 H   0  0  0  0  0  0  0  0  0  0  0  0
   -7.0307  -22.9686   28.1797 H   0  0  0  0  0  0  0  0  0  0  0  0
   -7.7310  -23.1542   26.4043 H   0  0  0  0  0  0  0  0  0  0  0  0
   -5.5999  -23.6891   24.6886 H   0  0  0  0  0  0  0  0  0  0  0  0
   -2.2278  -19.7259   26.9237 H   0  0  0  0  0  0  0  0  0  0  0  0
   -2.4453  -19.7732   25.1574 H   0  0  0  0  0  0  0  0  0  0  0  0
   -3.2332  -16.5323   24.5595 H   0  0  0  0  0  0  0  0  0  0  0  0
   -1.4492  -14.9452   23.4886 H   0  0  0  0  0  0  0  0  0  0  0  0
   -2.1831  -14.5390   26.4700 H   0  0  0  0  0  0  0  0  0  0  0  0
   -2.6890  -13.1481   25.4650 H   0  0  0  0  0  0  0  0  0  0  0  0
   -1.2833  -13.2512   25.5232 H   0  0  0  0  0  0  0  0  0  0  0  0
    1.2954  -14.7245   23.4531 H   0  0  0  0  0  0  0  0  0  0  0  0
    0.8061  -13.8905   25.2430 H   0  0  0  0  0  0  0  0  0  0  0  0
    2.5180  -12.3310   24.6822 H   0  0  0  0  0  0  0  0  0  0  0  0
    5.9320  -14.4933   27.6025 H   0  0  0  0  0  0  0  0  0  0  0  0
    8.1403  -12.8741   27.8939 H   0  0  0  0  0  0  0  0  0  0  0  0
    6.4655  -11.5744   24.4613 H   0  0  0  0  0  0  0  0  0  0  0  0
   -4.7217  -21.7160   27.8276 H   0  0  0  0  0  0  0  0  0  0  0  0
  1  2  1  0
  2  3  1  0
  3  4  2  0
  4  5  1  0
  5  6  2  0
  6  7  1  0
  7  8  1  0
  8  9  2  0
  8 10  1  0
 10 11  1  0
 11 12  1  0
 11 13  1  0
 13 14  1  0
 14 15  1  0
 15 16  2  0
 15 17  1  0
 17 18  1  0
 18 19  2  0
 19 20  1  0
 20 21  1  0
  6 22  1  0
 22  3  1  0
 21 17  2  0
  1 23  1  0
  1 24  1  0
  1 25  1  0
  2 26  1  0
  2 27  1  0
  4 28  1  0
  7 29  1  0
  7 30  1  0
 10 31  1  0
 11 32  1  0
 12 33  1  0
 12 34  1  0
 12 35  1  0
 13 36  1  0
 13 37  1  0
 14 38  1  0
 18 39  1  0
 19 40  1  0
 21 41  1  0
 22 42  1  0
M  END
>  <Energy>  (1044) 
947.37209699781783

>  <compound_id>  (1044) 
54767

>  <target_id>  (1044) 
1

>  <reference_id>  (1044) 
20

>  <inspiration_ids>  (1044) 
[101, 20]

>  <energy_score>  (1044) 
915.5310156580476

>  <distance_score>  (1044) 
13.01611431485645

>  <path>  (1044) 
/opt/xchem-fragalysis-2/maxwin/BulkDock/SCRATCH/511024/C54767-P20/C54767-P20.minimised.mol

>  <scratch_subdir>  (1044) 
/opt/xchem-fragalysis-2/maxwin/BulkDock/SCRATCH/511024/C54767-P20

>  <fragmenstein_runtime>  (1044) 
24.42214560508728

>  <fragmenstein_outcome>  (1044) 
too moved

>  <fragmenstein_mode>  (1044) 
expansion

>  <fragmenstein_error>  (1044) 


$$$$
C54768-P101
     RDKit          3D

 39 40  0  0  0  0  0  0  0  0999 V2000
   -1.0103  -14.8252   22.5771 C   0  0  0  0  0  0  0  0  0  0  0  0
   -1.3692  -14.9648   24.4641 C   0  0  0  0  0  0  0  0  0  0  0  0
    0.5934  -14.3044   24.4366 C   0  0  0  0  0  0  0  0  0  0  0  0
    2.2616  -14.2506   23.3581 N   0  0  0  0  0  0  0  0  0  0  0  0
    3.1901  -12.8364   22.6036 C   0  0  0  0  0  0  0  0  0  0  0  0
    2.8241  -11.7624   22.8653 O   0  0  0  0  0  0  0  0  0  0  0  0
    4.5646  -12.7191   21.2421 C   0  0  0  0  0  0  0  0  0  0  0  0
    5.7381  -11.4474   21.1668 C   0  0  0  0  0  0  0  0  0  0  0  0
    6.5691  -11.6417   20.1047 C   0  0  0  0  0  0  0  0  0  0  0  0
    6.0347  -12.6142   19.3470 O   0  0  0  0  0  0  0  0  0  0  0  0
    4.8655  -13.0796   19.8968 C   0  0  0  0  0  0  0  0  0  0  0  0
   -2.7073  -16.3922   24.5758 N   0  0  0  0  0  0  0  0  0  0  0  0
   -2.6205  -18.2003   25.2813 C   0  0  0  0  0  0  0  0  0  0  0  0
   -1.6403  -18.5851   25.8845 O   0  0  0  0  0  0  0  0  0  0  0  0
   -4.1509  -19.8058   24.8606 C   0  0  0  0  0  0  0  0  0  0  0  0
   -5.5526  -20.9248   23.7460 C   0  0  0  0  0  0  0  0  0  0  0  0
   -6.4957  -20.0053   23.1596 N   0  0  0  0  0  0  0  0  0  0  0  0
   -7.2980  -20.5309   22.1803 C   0  0  0  0  0  0  0  0  0  0  0  0
   -7.1379  -21.8696   22.1186 C   0  0  0  0  0  0  0  0  0  0  0  0
   -6.2384  -22.2182   23.1054 N   0  0  0  0  0  0  0  0  0  0  0  0
   -6.2030  -23.6285   23.4784 C   0  0  0  0  0  0  0  0  0  0  0  0
   -0.2928  -14.0936   22.3462 H   0  0  0  0  0  0  0  0  0  0  0  0
   -0.4819  -15.6846   22.0502 H   0  0  0  0  0  0  0  0  0  0  0  0
   -1.8233  -14.6850   21.8298 H   0  0  0  0  0  0  0  0  0  0  0  0
   -1.0404  -15.8757   24.4119 H   0  0  0  0  0  0  0  0  0  0  0  0
    0.2483  -13.7499   23.6651 H   0  0  0  0  0  0  0  0  0  0  0  0
    0.8625  -13.7697   25.4201 H   0  0  0  0  0  0  0  0  0  0  0  0
    2.7383  -15.1058   23.1193 H   0  0  0  0  0  0  0  0  0  0  0  0
    5.8165  -10.7060   21.9585 H   0  0  0  0  0  0  0  0  0  0  0  0
    7.4644  -11.1669   19.7304 H   0  0  0  0  0  0  0  0  0  0  0  0
    4.3209  -13.6039   19.1260 H   0  0  0  0  0  0  0  0  0  0  0  0
   -3.6096  -16.2345   24.1911 H   0  0  0  0  0  0  0  0  0  0  0  0
   -4.5610  -20.3495   25.7113 H   0  0  0  0  0  0  0  0  0  0  0  0
   -5.0746  -19.2709   24.6530 H   0  0  0  0  0  0  0  0  0  0  0  0
   -7.9627  -19.8984   21.6087 H   0  0  0  0  0  0  0  0  0  0  0  0
   -7.6398  -22.6167   21.5175 H   0  0  0  0  0  0  0  0  0  0  0  0
   -5.5581  -23.8338   24.3140 H   0  0  0  0  0  0  0  0  0  0  0  0
   -7.2194  -23.8621   23.7930 H   0  0  0  0  0  0  0  0  0  0  0  0
   -5.9152  -24.2169   22.6037 H   0  0  0  0  0  0  0  0  0  0  0  0
  1  2  1  0
  2  3  1  0
  3  4  1  0
  4  5  1  0
  5  6  2  0
  5  7  1  0
  7  8  1  0
  8  9  2  0
  9 10  1  0
 10 11  1  0
  2 12  1  0
 12 13  1  0
 13 14  2  0
 13 15  1  0
 15 16  1  0
 16 17  2  0
 17 18  1  0
 18 19  2  0
 19 20  1  0
 20 21  1  0
 11  7  2  0
 20 16  1  0
  1 22  1  0
  1 23  1  0
  1 24  1  0
  2 25  1  0
  3 26  1  0
  3 27  1  0
  4 28  1  0
  8 29  1  0
  9 30  1  0
 11 31  1  0
 12 32  1  0
 15 33  1  0
 15 34  1  0
 18 35  1  0
 19 36  1  0
 21 37  1  0
 21 38  1  0
 21 39  1  0
M  END
>  <Energy>  (1045) 
1110.8615379314492

>  <compound_id>  (1045) 
54768

>  <target_id>  (1045) 
1

>  <reference_id>  (1045) 
101

>  <inspiration_ids>  (1045) 
[101, 20]

>  <energy_score>  (1045) 
1078.0738916052333

>  <distance_score>  (1045) 
12.17395263207956

>  <path>  (1045) 
/opt/xchem-fragalysis-2/maxwin/BulkDock/SCRATCH/511024/C54768-P101/C54768-P101.minimised.mol

>  <scratch_subdir>  (1045) 
/opt/xchem-fragalysis-2/maxwin/BulkDock/SCRATCH/511024/C54768-P101

>  <fragmenstein_runtime>  (1045) 
19.22471332550049

>  <fragmenstein_outcome>  (1045) 
too moved

>  <fragmenstein_mode>  (1045) 
expansion

>  <fragmenstein_error>  (1045) 


$$$$
C54768-P20
     RDKit          3D

 39 40  0  0  0  0  0  0  0  0999 V2000
    3.2473  -13.6893   24.1439 C   0  0  0  0  0  0  0  0  0  0  0  0
    3.5542  -14.9740   23.2743 C   0  0  0  0  0  0  0  0  0  0  0  0
    3.3648  -13.8736   21.5810 C   0  0  0  0  0  0  0  0  0  0  0  0
    4.6315  -12.9286   20.7235 N   0  0  0  0  0  0  0  0  0  0  0  0
    5.2367  -13.1012   19.3814 C   0  0  0  0  0  0  0  0  0  0  0  0
    5.0358  -13.9262   18.5308 O   0  0  0  0  0  0  0  0  0  0  0  0
    6.3184  -12.0897   19.1506 C   0  0  0  0  0  0  0  0  0  0  0  0
    7.0018  -11.1983   20.0471 C   0  0  0  0  0  0  0  0  0  0  0  0
    7.8687  -10.4432   19.2977 C   0  0  0  0  0  0  0  0  0  0  0  0
    7.7899  -10.8002   17.9954 O   0  0  0  0  0  0  0  0  0  0  0  0
    6.8739  -11.8009   17.9131 C   0  0  0  0  0  0  0  0  0  0  0  0
    2.3710  -15.8465   23.6416 N   0  0  0  0  0  0  0  0  0  0  0  0
    2.2500  -17.6584   24.5971 C   0  0  0  0  0  0  0  0  0  0  0  0
    3.2128  -18.3342   24.9343 O   0  0  0  0  0  0  0  0  0  0  0  0
    0.3827  -18.6577   25.2099 C   0  0  0  0  0  0  0  0  0  0  0  0
   -1.7086  -18.6493   25.3673 C   0  0  0  0  0  0  0  0  0  0  0  0
   -1.3628  -19.3101   23.7062 N   0  0  0  0  0  0  0  0  0  0  0  0
   -1.6110  -20.6328   23.4304 C   0  0  0  0  0  0  0  0  0  0  0  0
   -2.7150  -20.6642   24.0564 C   0  0  0  0  0  0  0  0  0  0  0  0
   -2.8977  -19.6097   25.3774 N   0  0  0  0  0  0  0  0  0  0  0  0
   -4.6111  -20.1751   25.3248 C   0  0  0  0  0  0  0  0  0  0  0  0
    2.2190  -13.3233   24.2184 H   0  0  0  0  0  0  0  0  0  0  0  0
    3.7234  -13.9336   25.0997 H   0  0  0  0  0  0  0  0  0  0  0  0
    3.5303  -12.7321   23.7649 H   0  0  0  0  0  0  0  0  0  0  0  0
    4.4755  -15.3951   23.6662 H   0  0  0  0  0  0  0  0  0  0  0  0
    2.6610  -14.2884   20.8264 H   0  0  0  0  0  0  0  0  0  0  0  0
    3.1794  -12.9726   22.1143 H   0  0  0  0  0  0  0  0  0  0  0  0
    4.9732  -12.0872   21.1298 H   0  0  0  0  0  0  0  0  0  0  0  0
    6.8859  -11.1064   21.1157 H   0  0  0  0  0  0  0  0  0  0  0  0
    8.5703   -9.6613   19.5443 H   0  0  0  0  0  0  0  0  0  0  0  0
    6.7081  -12.2028   16.9218 H   0  0  0  0  0  0  0  0  0  0  0  0
    1.4992  -15.4493   23.5440 H   0  0  0  0  0  0  0  0  0  0  0  0
    0.4541  -19.1678   26.1279 H   0  0  0  0  0  0  0  0  0  0  0  0
   -0.1284  -18.0693   26.1810 H   0  0  0  0  0  0  0  0  0  0  0  0
   -0.9106  -21.4456   23.2950 H   0  0  0  0  0  0  0  0  0  0  0  0
   -3.6111  -20.8265   23.6393 H   0  0  0  0  0  0  0  0  0  0  0  0
   -5.1192  -19.4898   24.7086 H   0  0  0  0  0  0  0  0  0  0  0  0
   -4.6442  -21.2089   25.0593 H   0  0  0  0  0  0  0  0  0  0  0  0
   -5.2884  -20.0631   26.1824 H   0  0  0  0  0  0  0  0  0  0  0  0
  1  2  1  0
  2  3  1  0
  3  4  1  0
  4  5  1  0
  5  6  2  0
  5  7  1  0
  7  8  1  0
  8  9  2  0
  9 10  1  0
 10 11  1  0
  2 12  1  0
 12 13  1  0
 13 14  2  0
 13 15  1  0
 15 16  1  0
 16 17  2  0
 17 18  1  0
 18 19  2  0
 19 20  1  0
 20 21  1  0
 11  7  2  0
 20 16  1  0
  1 22  1  0
  1 23  1  0
  1 24  1  0
  2 25  1  0
  3 26  1  0
  3 27  1  0
  4 28  1  0
  8 29  1  0
  9 30  1  0
 11 31  1  0
 12 32  1  0
 15 33  1  0
 15 34  1  0
 18 35  1  0
 19 36  1  0
 21 37  1  0
 21 38  1  0
 21 39  1  0
M  END
>  <Energy>  (1046) 
994.95515883875498

>  <compound_id>  (1046) 
54768

>  <target_id>  (1046) 
1

>  <reference_id>  (1046) 
20

>  <inspiration_ids>  (1046) 
[101, 20]

>  <energy_score>  (1046) 
962.1675125125169

>  <distance_score>  (1046) 
11.881716755941419

>  <path>  (1046) 
/opt/xchem-fragalysis-2/maxwin/BulkDock/SCRATCH/511024/C54768-P20/C54768-P20.minimised.mol

>  <scratch_subdir>  (1046) 
/opt/xchem-fragalysis-2/maxwin/BulkDock/SCRATCH/511024/C54768-P20

>  <fragmenstein_runtime>  (1046) 
25.903409242630005

>  <fragmenstein_outcome>  (1046) 
too moved

>  <fragmenstein_mode>  (1046) 
expansion

>  <fragmenstein_error>  (1046) 


$$$$
C54769-P101
     RDKit          3D

 43 45  0  0  0  0  0  0  0  0999 V2000
    1.8558  -15.1260   20.6063 C   0  0  0  0  0  0  0  0  0  0  0  0
    0.8912  -16.2638   19.9722 C   0  0  0  0  0  0  0  0  0  0  0  0
    2.2155  -15.2697   18.5347 C   0  0  0  0  0  0  0  0  0  0  0  0
    3.6255  -13.9874   19.0016 N   0  0  0  0  0  0  0  0  0  0  0  0
    4.8067  -13.4539   18.2207 C   0  0  0  0  0  0  0  0  0  0  0  0
    5.1191  -13.6249   17.1066 O   0  0  0  0  0  0  0  0  0  0  0  0
    5.8025  -12.5295   18.8874 C   0  0  0  0  0  0  0  0  0  0  0  0
    6.1154  -11.9628   20.1297 C   0  0  0  0  0  0  0  0  0  0  0  0
    7.1615  -11.0741   20.0132 C   0  0  0  0  0  0  0  0  0  0  0  0
    7.5768  -11.0370   18.7324 O   0  0  0  0  0  0  0  0  0  0  0  0
    6.7671  -11.8949   18.0706 C   0  0  0  0  0  0  0  0  0  0  0  0
   -0.9637  -16.2751   19.7180 N   0  0  0  0  0  0  0  0  0  0  0  0
   -1.9584  -17.3272   19.9529 C   0  0  0  0  0  0  0  0  0  0  0  0
   -1.8410  -18.3828   20.4455 O   0  0  0  0  0  0  0  0  0  0  0  0
   -3.3890  -17.1735   19.3861 C   0  0  0  0  0  0  0  0  0  0  0  0
   -4.8074  -17.9723   19.5114 C   0  0  0  0  0  0  0  0  0  0  0  0
   -5.9575  -17.5490   20.0480 N   0  0  0  0  0  0  0  0  0  0  0  0
   -6.9589  -18.3194   19.5468 C   0  0  0  0  0  0  0  0  0  0  0  0
   -6.4146  -19.2134   18.6745 C   0  0  0  0  0  0  0  0  0  0  0  0
   -5.0749  -19.1887   18.9612 N   0  0  0  0  0  0  0  0  0  0  0  0
    0.8157  -18.0107   21.0493 C   0  0  0  0  0  0  0  0  0  0  0  0
    2.5234  -19.1235   21.4791 C   0  0  0  0  0  0  0  0  0  0  0  0
    1.5666  -19.8526   21.0382 C   0  0  0  0  0  0  0  0  0  0  0  0
    2.6794  -14.7633   21.2885 H   0  0  0  0  0  0  0  0  0  0  0  0
    2.6480  -15.5789   20.2367 H   0  0  0  0  0  0  0  0  0  0  0  0
    2.0657  -14.2601   20.1124 H   0  0  0  0  0  0  0  0  0  0  0  0
    2.7662  -15.8937   17.8612 H   0  0  0  0  0  0  0  0  0  0  0  0
    1.6426  -14.5294   17.9548 H   0  0  0  0  0  0  0  0  0  0  0  0
    3.7101  -13.7057   19.9738 H   0  0  0  0  0  0  0  0  0  0  0  0
    5.4779  -12.0582   20.9625 H   0  0  0  0  0  0  0  0  0  0  0  0
    7.6556  -10.3938   20.6929 H   0  0  0  0  0  0  0  0  0  0  0  0
    6.9594  -11.9604   17.0066 H   0  0  0  0  0  0  0  0  0  0  0  0
   -1.4279  -15.4569   19.3443 H   0  0  0  0  0  0  0  0  0  0  0  0
   -3.1075  -17.9479   18.6286 H   0  0  0  0  0  0  0  0  0  0  0  0
   -3.4843  -16.4815   18.6048 H   0  0  0  0  0  0  0  0  0  0  0  0
   -7.9983  -18.1300   19.7722 H   0  0  0  0  0  0  0  0  0  0  0  0
   -6.8350  -19.9208   17.9778 H   0  0  0  0  0  0  0  0  0  0  0  0
   -4.3935  -19.8883   18.7226 H   0  0  0  0  0  0  0  0  0  0  0  0
   -0.1153  -18.0433   21.5909 H   0  0  0  0  0  0  0  0  0  0  0  0
    3.0293  -19.3863   22.4518 H   0  0  0  0  0  0  0  0  0  0  0  0
    3.3693  -19.2965   20.8940 H   0  0  0  0  0  0  0  0  0  0  0  0
    1.4415  -20.4118   21.9504 H   0  0  0  0  0  0  0  0  0  0  0  0
    1.9271  -20.4022   20.1512 H   0  0  0  0  0  0  0  0  0  0  0  0
  1  2  1  0
  2  3  1  0
  3  4  1  0
  4  5  1  0
  5  6  2  0
  5  7  1  0
  7  8  1  0
  8  9  2  0
  9 10  1  0
 10 11  1  0
  2 12  1  0
 12 13  1  0
 13 14  2  0
 13 15  1  0
 15 16  1  0
 16 17  2  0
 17 18  1  0
 18 19  2  0
 19 20  1  0
  2 21  1  0
 21 22  1  0
 22 23  1  0
 11  7  2  0
 20 16  1  0
 23 21  1  0
  1 24  1  0
  1 25  1  0
  1 26  1  0
  3 27  1  0
  3 28  1  0
  4 29  1  0
  8 30  1  0
  9 31  1  0
 11 32  1  0
 12 33  1  0
 15 34  1  0
 15 35  1  0
 18 36  1  0
 19 37  1  0
 20 38  1  0
 21 39  1  0
 22 40  1  0
 22 41  1  0
 23 42  1  0
 23 43  1  0
M  END
>  <Energy>  (1047) 
776.22946870876285

>  <compound_id>  (1047) 
54769

>  <target_id>  (1047) 
1

>  <reference_id>  (1047) 
101

>  <inspiration_ids>  (1047) 
[101, 20]

>  <energy_score>  (1047) 
714.540210653031

>  <distance_score>  (1047) 
12.69384773105233

>  <path>  (1047) 
/opt/xchem-fragalysis-2/maxwin/BulkDock/SCRATCH/511024/C54769-P101/C54769-P101.minimised.mol

>  <scratch_subdir>  (1047) 
/opt/xchem-fragalysis-2/maxwin/BulkDock/SCRATCH/511024/C54769-P101

>  <fragmenstein_runtime>  (1047) 
32.27286911010742

>  <fragmenstein_outcome>  (1047) 
too moved

>  <fragmenstein_mode>  (1047) 
expansion

>  <fragmenstein_error>  (1047) 


$$$$
C54769-P20
     RDKit          3D

 43 45  0  0  0  0  0  0  0  0999 V2000
    3.1434  -17.0351   26.6444 C   0  0  0  0  0  0  0  0  0  0  0  0
    3.7427  -17.3962   24.7708 C   0  0  0  0  0  0  0  0  0  0  0  0
    4.1948  -15.6138   23.3954 C   0  0  0  0  0  0  0  0  0  0  0  0
    4.9607  -14.5038   21.5997 N   0  0  0  0  0  0  0  0  0  0  0  0
    4.7328  -12.9726   21.1000 C   0  0  0  0  0  0  0  0  0  0  0  0
    4.1482  -12.0947   21.6756 O   0  0  0  0  0  0  0  0  0  0  0  0
    5.4653  -12.6819   19.8207 C   0  0  0  0  0  0  0  0  0  0  0  0
    5.2364  -12.8895   18.4515 C   0  0  0  0  0  0  0  0  0  0  0  0
    6.1267  -12.1074   17.7427 C   0  0  0  0  0  0  0  0  0  0  0  0
    6.9790  -11.4818   18.5905 O   0  0  0  0  0  0  0  0  0  0  0  0
    6.5812  -11.8343   19.8390 C   0  0  0  0  0  0  0  0  0  0  0  0
    2.6421  -18.6170   24.2189 N   0  0  0  0  0  0  0  0  0  0  0  0
    0.8831  -19.0745   24.7473 C   0  0  0  0  0  0  0  0  0  0  0  0
    0.1627  -18.6296   25.7260 O   0  0  0  0  0  0  0  0  0  0  0  0
   -0.2345  -20.3271   23.5942 C   0  0  0  0  0  0  0  0  0  0  0  0
   -2.1565  -20.4859   24.1111 C   0  0  0  0  0  0  0  0  0  0  0  0
   -3.3086  -20.7762   23.6440 N   0  0  0  0  0  0  0  0  0  0  0  0
   -4.3997  -20.9716   24.6038 C   0  0  0  0  0  0  0  0  0  0  0  0
   -4.3868  -20.1768   25.5677 C   0  0  0  0  0  0  0  0  0  0  0  0
   -2.7539  -19.5316   25.4803 N   0  0  0  0  0  0  0  0  0  0  0  0
    3.9703  -19.1604   25.5865 C   0  0  0  0  0  0  0  0  0  0  0  0
    4.1176  -20.5642   25.2085 C   0  0  0  0  0  0  0  0  0  0  0  0
    4.9678  -20.2219   26.3472 C   0  0  0  0  0  0  0  0  0  0  0  0
    3.4103  -17.5557   27.5652 H   0  0  0  0  0  0  0  0  0  0  0  0
    2.1027  -17.2281   26.8805 H   0  0  0  0  0  0  0  0  0  0  0  0
    3.6594  -16.1201   27.0155 H   0  0  0  0  0  0  0  0  0  0  0  0
    3.2659  -15.0363   23.4174 H   0  0  0  0  0  0  0  0  0  0  0  0
    4.7657  -15.1308   24.1884 H   0  0  0  0  0  0  0  0  0  0  0  0
    5.4041  -15.0217   20.8568 H   0  0  0  0  0  0  0  0  0  0  0  0
    4.4319  -13.4955   18.0921 H   0  0  0  0  0  0  0  0  0  0  0  0
    6.2806  -11.9104   16.6913 H   0  0  0  0  0  0  0  0  0  0  0  0
    7.1208  -11.3556   20.6444 H   0  0  0  0  0  0  0  0  0  0  0  0
    2.8868  -19.0922   23.3533 H   0  0  0  0  0  0  0  0  0  0  0  0
   -0.1416  -21.4205   23.4679 H   0  0  0  0  0  0  0  0  0  0  0  0
   -0.9267  -19.5100   23.1653 H   0  0  0  0  0  0  0  0  0  0  0  0
   -5.1879  -21.6776   24.5759 H   0  0  0  0  0  0  0  0  0  0  0  0
   -5.0909  -19.9890   26.3815 H   0  0  0  0  0  0  0  0  0  0  0  0
   -2.1660  -19.1024   26.1862 H   0  0  0  0  0  0  0  0  0  0  0  0
    3.3392  -19.0067   26.4258 H   0  0  0  0  0  0  0  0  0  0  0  0
    3.7050  -21.5332   25.4514 H   0  0  0  0  0  0  0  0  0  0  0  0
    4.0237  -20.3342   24.1980 H   0  0  0  0  0  0  0  0  0  0  0  0
    4.7104  -20.4610   27.3828 H   0  0  0  0  0  0  0  0  0  0  0  0
    5.8569  -20.8044   26.1689 H   0  0  0  0  0  0  0  0  0  0  0  0
  1  2  1  0
  2  3  1  0
  3  4  1  0
  4  5  1  0
  5  6  2  0
  5  7  1  0
  7  8  1  0
  8  9  2  0
  9 10  1  0
 10 11  1  0
  2 12  1  0
 12 13  1  0
 13 14  2  0
 13 15  1  0
 15 16  1  0
 16 17  2  0
 17 18  1  0
 18 19  2  0
 19 20  1  0
  2 21  1  0
 21 22  1  0
 22 23  1  0
 11  7  2  0
 20 16  1  0
 23 21  1  0
  1 24  1  0
  1 25  1  0
  1 26  1  0
  3 27  1  0
  3 28  1  0
  4 29  1  0
  8 30  1  0
  9 31  1  0
 11 32  1  0
 12 33  1  0
 15 34  1  0
 15 35  1  0
 18 36  1  0
 19 37  1  0
 20 38  1  0
 21 39  1  0
 22 40  1  0
 22 41  1  0
 23 42  1  0
 23 43  1  0
M  END
>  <Energy>  (1048) 
1184.4537930381064

>  <compound_id>  (1048) 
54769

>  <target_id>  (1048) 
1

>  <reference_id>  (1048) 
20

>  <inspiration_ids>  (1048) 
[101, 20]

>  <energy_score>  (1048) 
1122.7645349823704

>  <distance_score>  (1048) 
11.872891227854197

>  <path>  (1048) 
/opt/xchem-fragalysis-2/maxwin/BulkDock/SCRATCH/511024/C54769-P20/C54769-P20.minimised.mol

>  <scratch_subdir>  (1048) 
/opt/xchem-fragalysis-2/maxwin/BulkDock/SCRATCH/511024/C54769-P20

>  <fragmenstein_runtime>  (1048) 
20.33601951599121

>  <fragmenstein_outcome>  (1048) 
too moved

>  <fragmenstein_mode>  (1048) 
expansion

>  <fragmenstein_error>  (1048) 


$$$$
C54770-P101
     RDKit          3D

 46 48  0  0  0  0  0  0  0  0999 V2000
    4.6369  -15.5727   24.2220 C   0  0  0  0  0  0  0  0  0  0  0  0
    3.5408  -14.8317   23.4872 C   0  0  0  0  0  0  0  0  0  0  0  0
    3.4792  -13.0474   22.4601 C   0  0  0  0  0  0  0  0  0  0  0  0
    4.2975  -11.4138   22.3043 N   0  0  0  0  0  0  0  0  0  0  0  0
    5.7047  -11.0009   21.6479 C   0  0  0  0  0  0  0  0  0  0  0  0
    6.5220  -11.6749   21.0510 O   0  0  0  0  0  0  0  0  0  0  0  0
    6.0752   -9.5459   21.9318 C   0  0  0  0  0  0  0  0  0  0  0  0
    5.8968   -8.5312   20.9756 C   0  0  0  0  0  0  0  0  0  0  0  0
    5.9385   -7.1876   21.3519 C   0  0  0  0  0  0  0  0  0  0  0  0
    6.2947   -6.8473   22.6551 C   0  0  0  0  0  0  0  0  0  0  0  0
    6.6207   -7.8505   23.5714 C   0  0  0  0  0  0  0  0  0  0  0  0
    6.5114   -9.1974   23.2088 C   0  0  0  0  0  0  0  0  0  0  0  0
    2.2716  -15.8306   23.6863 N   0  0  0  0  0  0  0  0  0  0  0  0
    2.1102  -17.6786   24.5967 C   0  0  0  0  0  0  0  0  0  0  0  0
    3.0553  -18.3306   25.0323 O   0  0  0  0  0  0  0  0  0  0  0  0
    0.1749  -18.6763   25.1525 C   0  0  0  0  0  0  0  0  0  0  0  0
   -1.9897  -19.0181   25.3822 C   0  0  0  0  0  0  0  0  0  0  0  0
   -2.5325  -20.3537   24.2692 N   0  0  0  0  0  0  0  0  0  0  0  0
   -4.3020  -20.8608   24.4898 C   0  0  0  0  0  0  0  0  0  0  0  0
   -4.6753  -20.3407   25.6305 C   0  0  0  0  0  0  0  0  0  0  0  0
   -3.6148  -19.6965   25.0093 N   0  0  0  0  0  0  0  0  0  0  0  0
    3.1940  -13.7385   24.7446 C   0  0  0  0  0  0  0  0  0  0  0  0
    1.8968  -13.0926   24.4851 C   0  0  0  0  0  0  0  0  0  0  0  0
    1.6371  -13.3703   25.8600 C   0  0  0  0  0  0  0  0  0  0  0  0
    5.5466  -15.9222   23.8645 H   0  0  0  0  0  0  0  0  0  0  0  0
    4.3283  -16.5931   24.2626 H   0  0  0  0  0  0  0  0  0  0  0  0
    4.9293  -15.1653   25.1779 H   0  0  0  0  0  0  0  0  0  0  0  0
    3.5367  -13.3619   21.4003 H   0  0  0  0  0  0  0  0  0  0  0  0
    2.7187  -12.4372   22.8537 H   0  0  0  0  0  0  0  0  0  0  0  0
    3.8253  -10.5785   22.6533 H   0  0  0  0  0  0  0  0  0  0  0  0
    5.6324   -8.7779   19.9520 H   0  0  0  0  0  0  0  0  0  0  0  0
    5.7121   -6.4142   20.6216 H   0  0  0  0  0  0  0  0  0  0  0  0
    6.3370   -5.8019   22.9507 H   0  0  0  0  0  0  0  0  0  0  0  0
    6.9340   -7.5844   24.5781 H   0  0  0  0  0  0  0  0  0  0  0  0
    6.7339   -9.9736   23.9355 H   0  0  0  0  0  0  0  0  0  0  0  0
    1.4216  -15.4672   23.4974 H   0  0  0  0  0  0  0  0  0  0  0  0
   -0.4126  -17.9550   25.8324 H   0  0  0  0  0  0  0  0  0  0  0  0
    0.3108  -19.0006   26.1836 H   0  0  0  0  0  0  0  0  0  0  0  0
   -5.1783  -21.1440   23.9037 H   0  0  0  0  0  0  0  0  0  0  0  0
   -5.4681  -19.9352   26.2509 H   0  0  0  0  0  0  0  0  0  0  0  0
   -4.1310  -19.0117   24.5747 H   0  0  0  0  0  0  0  0  0  0  0  0
    3.7990  -14.0591   25.5934 H   0  0  0  0  0  0  0  0  0  0  0  0
    1.8726  -12.0656   24.2212 H   0  0  0  0  0  0  0  0  0  0  0  0
    1.1281  -13.7416   24.0614 H   0  0  0  0  0  0  0  0  0  0  0  0
    1.1025  -14.1191   26.3617 H   0  0  0  0  0  0  0  0  0  0  0  0
    1.2758  -12.4695   26.3387 H   0  0  0  0  0  0  0  0  0  0  0  0
  1  2  1  0
  2  3  1  0
  3  4  1  0
  4  5  1  0
  5  6  2  0
  5  7  1  0
  7  8  2  0
  8  9  1  0
  9 10  2  0
 10 11  1  0
 11 12  2  0
  2 13  1  0
 13 14  1  0
 14 15  2  0
 14 16  1  0
 16 17  1  0
 17 18  2  0
 18 19  1  0
 19 20  2  0
 20 21  1  0
  2 22  1  0
 22 23  1  0
 23 24  1  0
 12  7  1  0
 21 17  1  0
 24 22  1  0
  1 25  1  0
  1 26  1  0
  1 27  1  0
  3 28  1  0
  3 29  1  0
  4 30  1  0
  8 31  1  0
  9 32  1  0
 10 33  1  0
 11 34  1  0
 12 35  1  0
 13 36  1  0
 16 37  1  0
 16 38  1  0
 19 39  1  0
 20 40  1  0
 21 41  1  0
 22 42  1  0
 23 43  1  0
 23 44  1  0
 24 45  1  0
 24 46  1  0
M  END
>  <Energy>  (1049) 
1416.1431214562645

>  <compound_id>  (1049) 
54770

>  <target_id>  (1049) 
1

>  <reference_id>  (1049) 
101

>  <inspiration_ids>  (1049) 
[101, 20]

>  <energy_score>  (1049) 
1329.8221819359956

>  <distance_score>  (1049) 
10.977288660400136

>  <path>  (1049) 
/opt/xchem-fragalysis-2/maxwin/BulkDock/SCRATCH/511024/C54770-P101/C54770-P101.minimised.mol

>  <scratch_subdir>  (1049) 
/opt/xchem-fragalysis-2/maxwin/BulkDock/SCRATCH/511024/C54770-P101

>  <fragmenstein_runtime>  (1049) 
35.6064133644104

>  <fragmenstein_outcome>  (1049) 
too moved

>  <fragmenstein_mode>  (1049) 
expansion

>  <fragmenstein_error>  (1049) 


$$$$
C54770-P20
     RDKit          3D

 46 48  0  0  0  0  0  0  0  0999 V2000
    3.1375  -14.5247   23.5946 C   0  0  0  0  0  0  0  0  0  0  0  0
    1.8735  -13.5268   23.9427 C   0  0  0  0  0  0  0  0  0  0  0  0
    2.7752  -12.0592   23.3013 C   0  0  0  0  0  0  0  0  0  0  0  0
    4.1399  -11.5071   22.2846 N   0  0  0  0  0  0  0  0  0  0  0  0
    5.2348  -10.3652   22.5308 C   0  0  0  0  0  0  0  0  0  0  0  0
    5.3380   -9.5570   23.4281 O   0  0  0  0  0  0  0  0  0  0  0  0
    6.4488  -10.3135   21.5393 C   0  0  0  0  0  0  0  0  0  0  0  0
    7.4544   -9.3537   21.7830 C   0  0  0  0  0  0  0  0  0  0  0  0
    8.6854   -9.3926   21.1141 C   0  0  0  0  0  0  0  0  0  0  0  0
    8.9300  -10.3795   20.1700 C   0  0  0  0  0  0  0  0  0  0  0  0
    7.9345  -11.2974   19.8595 C   0  0  0  0  0  0  0  0  0  0  0  0
    6.7098  -11.2632   20.5366 C   0  0  0  0  0  0  0  0  0  0  0  0
    0.5964  -14.1076   24.8526 N   0  0  0  0  0  0  0  0  0  0  0  0
   -1.1005  -14.9378   24.4053 C   0  0  0  0  0  0  0  0  0  0  0  0
   -1.3054  -14.9634   23.2550 O   0  0  0  0  0  0  0  0  0  0  0  0
   -2.6575  -16.0305   25.4510 C   0  0  0  0  0  0  0  0  0  0  0  0
   -3.4838  -17.2497   27.0322 C   0  0  0  0  0  0  0  0  0  0  0  0
   -5.0668  -18.0485   27.4542 N   0  0  0  0  0  0  0  0  0  0  0  0
   -5.8996  -19.6213   26.8614 C   0  0  0  0  0  0  0  0  0  0  0  0
   -5.1400  -19.9353   25.9390 C   0  0  0  0  0  0  0  0  0  0  0  0
   -4.6990  -18.6893   27.4319 N   0  0  0  0  0  0  0  0  0  0  0  0
    1.8032  -12.9109   25.3786 C   0  0  0  0  0  0  0  0  0  0  0  0
    1.1240  -12.5359   26.8707 C   0  0  0  0  0  0  0  0  0  0  0  0
    2.0764  -13.6841   26.7696 C   0  0  0  0  0  0  0  0  0  0  0  0
    3.1810  -15.5775   23.5027 H   0  0  0  0  0  0  0  0  0  0  0  0
    3.2011  -14.4789   22.5301 H   0  0  0  0  0  0  0  0  0  0  0  0
    3.9384  -14.4102   24.3228 H   0  0  0  0  0  0  0  0  0  0  0  0
    3.4752  -12.4777   23.9856 H   0  0  0  0  0  0  0  0  0  0  0  0
    2.9840  -12.7475   22.5362 H   0  0  0  0  0  0  0  0  0  0  0  0
    4.4071  -12.0702   21.4586 H   0  0  0  0  0  0  0  0  0  0  0  0
    7.3049   -8.5978   22.5517 H   0  0  0  0  0  0  0  0  0  0  0  0
    9.4614   -8.6737   21.3605 H   0  0  0  0  0  0  0  0  0  0  0  0
    9.9021  -10.4529   19.6945 H   0  0  0  0  0  0  0  0  0  0  0  0
    8.1191  -12.0632   19.1097 H   0  0  0  0  0  0  0  0  0  0  0  0
    6.0038  -12.0481   20.2889 H   0  0  0  0  0  0  0  0  0  0  0  0
    0.6657  -14.0338   25.8314 H   0  0  0  0  0  0  0  0  0  0  0  0
   -2.3111  -17.0508   25.2508 H   0  0  0  0  0  0  0  0  0  0  0  0
   -2.2886  -15.2825   26.2882 H   0  0  0  0  0  0  0  0  0  0  0  0
   -6.8565  -20.0458   27.1732 H   0  0  0  0  0  0  0  0  0  0  0  0
   -4.3028  -19.9933   25.2463 H   0  0  0  0  0  0  0  0  0  0  0  0
   -3.7730  -18.9650   27.6616 H   0  0  0  0  0  0  0  0  0  0  0  0
    1.6795  -11.8892   25.0509 H   0  0  0  0  0  0  0  0  0  0  0  0
    1.5403  -12.0549   27.8189 H   0  0  0  0  0  0  0  0  0  0  0  0
    0.9914  -11.4551   26.8646 H   0  0  0  0  0  0  0  0  0  0  0  0
    3.1036  -13.9157   27.0611 H   0  0  0  0  0  0  0  0  0  0  0  0
    1.5877  -14.5783   27.0929 H   0  0  0  0  0  0  0  0  0  0  0  0
  1  2  1  0
  2  3  1  0
  3  4  1  0
  4  5  1  0
  5  6  2  0
  5  7  1  0
  7  8  2  0
  8  9  1  0
  9 10  2  0
 10 11  1  0
 11 12  2  0
  2 13  1  0
 13 14  1  0
 14 15  2  0
 14 16  1  0
 16 17  1  0
 17 18  2  0
 18 19  1  0
 19 20  2  0
 20 21  1  0
  2 22  1  0
 22 23  1  0
 23 24  1  0
 12  7  1  0
 21 17  1  0
 24 22  1  0
  1 25  1  0
  1 26  1  0
  1 27  1  0
  3 28  1  0
  3 29  1  0
  4 30  1  0
  8 31  1  0
  9 32  1  0
 10 33  1  0
 11 34  1  0
 12 35  1  0
 13 36  1  0
 16 37  1  0
 16 38  1  0
 19 39  1  0
 20 40  1  0
 21 41  1  0
 22 42  1  0
 23 43  1  0
 23 44  1  0
 24 45  1  0
 24 46  1  0
M  END
>  <Energy>  (1050) 
1619.1864662120138

>  <compound_id>  (1050) 
54770

>  <target_id>  (1050) 
1

>  <reference_id>  (1050) 
20

>  <inspiration_ids>  (1050) 
[101, 20]

>  <energy_score>  (1050) 
1532.8655266917176

>  <distance_score>  (1050) 
10.89122517437914

>  <path>  (1050) 
/opt/xchem-fragalysis-2/maxwin/BulkDock/SCRATCH/511024/C54770-P20/C54770-P20.minimised.mol

>  <scratch_subdir>  (1050) 
/opt/xchem-fragalysis-2/maxwin/BulkDock/SCRATCH/511024/C54770-P20

>  <fragmenstein_runtime>  (1050) 
21.790180683135986

>  <fragmenstein_outcome>  (1050) 
too moved

>  <fragmenstein_mode>  (1050) 
expansion

>  <fragmenstein_error>  (1050) 


$$$$
C14979-P101
     RDKit          3D

 43 45  0  0  0  0  0  0  0  0999 V2000
   -2.2030  -15.7043   20.3993 C   0  0  0  0  0  0  0  0  0  0  0  0
   -2.1757  -14.5667   21.9399 C   0  0  0  0  0  0  0  0  0  0  0  0
   -2.3270  -12.8852   20.7116 C   0  0  0  0  0  0  0  0  0  0  0  0
   -2.1386  -11.4168   20.7457 N   0  0  0  0  0  0  0  0  0  0  0  0
   -1.1883  -10.6316   21.3817 C   0  0  0  0  0  0  0  0  0  0  0  0
   -0.3207  -10.9200   22.1306 O   0  0  0  0  0  0  0  0  0  0  0  0
   -1.3061   -9.2526   21.2022 C   0  0  0  0  0  0  0  0  0  0  0  0
   -2.0796   -8.5823   22.0906 C   0  0  0  0  0  0  0  0  0  0  0  0
   -1.1750   -8.0511   23.0558 C   0  0  0  0  0  0  0  0  0  0  0  0
    0.1365   -8.0220   22.6583 C   0  0  0  0  0  0  0  0  0  0  0  0
    0.2455   -8.5666   21.0779 S   0  0  0  0  0  0  0  0  0  0  0  0
   -2.8167  -15.5607   23.6684 N   0  0  0  0  0  0  0  0  0  0  0  0
   -2.5540  -15.3130   25.2365 C   0  0  0  0  0  0  0  0  0  0  0  0
   -2.0233  -14.3963   25.8031 O   0  0  0  0  0  0  0  0  0  0  0  0
   -2.9182  -16.8372   26.5704 C   0  0  0  0  0  0  0  0  0  0  0  0
   -3.9327  -17.1683   27.9550 C   0  0  0  0  0  0  0  0  0  0  0  0
   -4.0465  -16.6518   29.1971 N   0  0  0  0  0  0  0  0  0  0  0  0
   -5.0784  -17.2471   29.9072 C   0  0  0  0  0  0  0  0  0  0  0  0
   -5.6484  -18.2166   29.1450 C   0  0  0  0  0  0  0  0  0  0  0  0
   -4.8259  -18.3771   28.0728 N   0  0  0  0  0  0  0  0  0  0  0  0
   -0.8411  -14.8372   22.4299 C   0  0  0  0  0  0  0  0  0  0  0  0
    0.0057  -13.9840   23.0073 C   0  0  0  0  0  0  0  0  0  0  0  0
   -0.6160  -14.4616   24.0759 C   0  0  0  0  0  0  0  0  0  0  0  0
   -1.9885  -15.1665   19.4865 H   0  0  0  0  0  0  0  0  0  0  0  0
   -1.4013  -16.4652   20.4119 H   0  0  0  0  0  0  0  0  0  0  0  0
   -3.1201  -16.2747   20.3470 H   0  0  0  0  0  0  0  0  0  0  0  0
   -1.9962  -12.9930   19.7068 H   0  0  0  0  0  0  0  0  0  0  0  0
   -3.3836  -12.6269   20.5297 H   0  0  0  0  0  0  0  0  0  0  0  0
   -2.6721  -10.8346   20.1075 H   0  0  0  0  0  0  0  0  0  0  0  0
   -3.1220   -8.7746   22.2903 H   0  0  0  0  0  0  0  0  0  0  0  0
   -1.4210   -7.6119   24.0156 H   0  0  0  0  0  0  0  0  0  0  0  0
    0.9176   -7.6655   23.2911 H   0  0  0  0  0  0  0  0  0  0  0  0
   -3.3456  -16.3555   23.5511 H   0  0  0  0  0  0  0  0  0  0  0  0
   -2.1933  -16.4435   27.3239 H   0  0  0  0  0  0  0  0  0  0  0  0
   -2.3499  -17.7417   26.2699 H   0  0  0  0  0  0  0  0  0  0  0  0
   -5.3742  -16.8735   30.8777 H   0  0  0  0  0  0  0  0  0  0  0  0
   -6.5437  -18.7763   29.2430 H   0  0  0  0  0  0  0  0  0  0  0  0
   -4.8460  -19.0532   27.3212 H   0  0  0  0  0  0  0  0  0  0  0  0
   -0.3737  -15.7205   21.9422 H   0  0  0  0  0  0  0  0  0  0  0  0
    1.0043  -14.4907   23.2151 H   0  0  0  0  0  0  0  0  0  0  0  0
   -0.1489  -12.9529   22.8208 H   0  0  0  0  0  0  0  0  0  0  0  0
    0.3146  -14.3450   24.6483 H   0  0  0  0  0  0  0  0  0  0  0  0
   -1.0879  -13.7312   24.6394 H   0  0  0  0  0  0  0  0  0  0  0  0
  1  2  1  0
  2  3  1  0
  3  4  1  0
  4  5  1  0
  5  6  2  0
  5  7  1  0
  7  8  2  0
  8  9  1  0
  9 10  2  0
 10 11  1  0
  2 12  1  0
 12 13  1  0
 13 14  2  0
 13 15  1  0
 15 16  1  0
 16 17  2  0
 17 18  1  0
 18 19  2  0
 19 20  1  0
  2 21  1  0
 21 22  1  0
 22 23  1  0
 11  7  1  0
 20 16  1  0
 23 21  1  0
  1 24  1  0
  1 25  1  0
  1 26  1  0
  3 27  1  0
  3 28  1  0
  4 29  1  0
  8 30  1  0
  9 31  1  0
 10 32  1  0
 12 33  1  0
 15 34  1  0
 15 35  1  0
 18 36  1  0
 19 37  1  0
 20 38  1  0
 21 39  1  0
 22 40  1  0
 22 41  1  0
 23 42  1  0
 23 43  1  0
M  END
>  <Energy>  (1051) 
687.37364178221844

>  <compound_id>  (1051) 
14979

>  <target_id>  (1051) 
1

>  <reference_id>  (1051) 
101

>  <inspiration_ids>  (1051) 
[101, 20]

>  <energy_score>  (1051) 
604.4563681538134

>  <distance_score>  (1051) 
13.92614482798433

>  <path>  (1051) 
/opt/xchem-fragalysis-2/maxwin/BulkDock/SCRATCH/511024/C14979-P101/C14979-P101.minimised.mol

>  <scratch_subdir>  (1051) 
/opt/xchem-fragalysis-2/maxwin/BulkDock/SCRATCH/511024/C14979-P101

>  <fragmenstein_runtime>  (1051) 
33.83848190307617

>  <fragmenstein_outcome>  (1051) 
too moved

>  <fragmenstein_mode>  (1051) 
expansion

>  <fragmenstein_error>  (1051) 


$$$$
C14979-P20
     RDKit          3D

 43 45  0  0  0  0  0  0  0  0999 V2000
   -4.4664  -15.0065   23.5824 C   0  0  0  0  0  0  0  0  0  0  0  0
   -5.7311  -13.7868   23.3954 C   0  0  0  0  0  0  0  0  0  0  0  0
   -6.0939  -12.3189   22.0268 C   0  0  0  0  0  0  0  0  0  0  0  0
   -4.7436  -11.0532   21.2397 N   0  0  0  0  0  0  0  0  0  0  0  0
   -3.9041  -11.1446   20.0431 C   0  0  0  0  0  0  0  0  0  0  0  0
   -3.8719  -11.9602   19.1861 O   0  0  0  0  0  0  0  0  0  0  0  0
   -2.9895   -9.8796   19.9330 C   0  0  0  0  0  0  0  0  0  0  0  0
   -1.6821   -9.5817   19.7731 C   0  0  0  0  0  0  0  0  0  0  0  0
   -1.7276   -9.6444   18.3485 C   0  0  0  0  0  0  0  0  0  0  0  0
   -1.9258   -8.3668   17.9218 C   0  0  0  0  0  0  0  0  0  0  0  0
   -3.4237   -8.1569   18.8429 S   0  0  0  0  0  0  0  0  0  0  0  0
   -7.0035  -15.3078   23.6592 N   0  0  0  0  0  0  0  0  0  0  0  0
   -7.7571  -16.6654   22.3101 C   0  0  0  0  0  0  0  0  0  0  0  0
   -7.3571  -16.6998   21.1127 O   0  0  0  0  0  0  0  0  0  0  0  0
   -9.0184  -17.7411   22.4720 C   0  0  0  0  0  0  0  0  0  0  0  0
  -10.4653  -17.5027   22.8248 C   0  0  0  0  0  0  0  0  0  0  0  0
  -11.0228  -16.7003   23.7087 N   0  0  0  0  0  0  0  0  0  0  0  0
  -12.3733  -16.9078   23.6050 C   0  0  0  0  0  0  0  0  0  0  0  0
  -12.6448  -17.9461   22.7510 C   0  0  0  0  0  0  0  0  0  0  0  0
  -11.4282  -18.3293   22.2706 N   0  0  0  0  0  0  0  0  0  0  0  0
   -5.2959  -12.4163   24.5102 C   0  0  0  0  0  0  0  0  0  0  0  0
   -3.5617  -12.2851   25.6344 C   0  0  0  0  0  0  0  0  0  0  0  0
   -4.0203  -11.8403   24.4356 C   0  0  0  0  0  0  0  0  0  0  0  0
   -4.6683  -15.5836   24.4385 H   0  0  0  0  0  0  0  0  0  0  0  0
   -4.4461  -15.6449   22.7310 H   0  0  0  0  0  0  0  0  0  0  0  0
   -3.4027  -14.9649   23.7427 H   0  0  0  0  0  0  0  0  0  0  0  0
   -6.8463  -12.2449   21.2117 H   0  0  0  0  0  0  0  0  0  0  0  0
   -6.6616  -11.7531   22.7986 H   0  0  0  0  0  0  0  0  0  0  0  0
   -4.4422  -10.2713   21.7969 H   0  0  0  0  0  0  0  0  0  0  0  0
   -1.2138   -8.7768   20.3327 H   0  0  0  0  0  0  0  0  0  0  0  0
   -2.0052  -10.5313   17.7956 H   0  0  0  0  0  0  0  0  0  0  0  0
   -1.8776   -7.8735   16.9629 H   0  0  0  0  0  0  0  0  0  0  0  0
   -7.5231  -15.3884   24.5573 H   0  0  0  0  0  0  0  0  0  0  0  0
   -8.6793  -18.7955   22.5461 H   0  0  0  0  0  0  0  0  0  0  0  0
   -9.2058  -17.8139   21.3745 H   0  0  0  0  0  0  0  0  0  0  0  0
  -13.0786  -16.3127   24.1709 H   0  0  0  0  0  0  0  0  0  0  0  0
  -13.5665  -18.4143   22.4356 H   0  0  0  0  0  0  0  0  0  0  0  0
  -11.2477  -19.0608   21.5938 H   0  0  0  0  0  0  0  0  0  0  0  0
   -6.1865  -11.8676   24.8045 H   0  0  0  0  0  0  0  0  0  0  0  0
   -3.7449  -12.0689   26.6879 H   0  0  0  0  0  0  0  0  0  0  0  0
   -2.6646  -12.9079   25.5899 H   0  0  0  0  0  0  0  0  0  0  0  0
   -3.7497  -10.9414   23.9362 H   0  0  0  0  0  0  0  0  0  0  0  0
   -3.5639  -12.6605   24.1391 H   0  0  0  0  0  0  0  0  0  0  0  0
  1  2  1  0
  2  3  1  0
  3  4  1  0
  4  5  1  0
  5  6  2  0
  5  7  1  0
  7  8  2  0
  8  9  1  0
  9 10  2  0
 10 11  1  0
  2 12  1  0
 12 13  1  0
 13 14  2  0
 13 15  1  0
 15 16  1  0
 16 17  2  0
 17 18  1  0
 18 19  2  0
 19 20  1  0
  2 21  1  0
 21 22  1  0
 22 23  1  0
 11  7  1  0
 20 16  1  0
 23 21  1  0
  1 24  1  0
  1 25  1  0
  1 26  1  0
  3 27  1  0
  3 28  1  0
  4 29  1  0
  8 30  1  0
  9 31  1  0
 10 32  1  0
 12 33  1  0
 15 34  1  0
 15 35  1  0
 18 36  1  0
 19 37  1  0
 20 38  1  0
 21 39  1  0
 22 40  1  0
 22 41  1  0
 23 42  1  0
 23 43  1  0
M  END
>  <Energy>  (1052) 
801.59210364960757

>  <compound_id>  (1052) 
14979

>  <target_id>  (1052) 
1

>  <reference_id>  (1052) 
20

>  <inspiration_ids>  (1052) 
[101, 20]

>  <energy_score>  (1052) 
718.6748300212053

>  <distance_score>  (1052) 
13.667189550249468

>  <path>  (1052) 
/opt/xchem-fragalysis-2/maxwin/BulkDock/SCRATCH/511024/C14979-P20/C14979-P20.minimised.mol

>  <scratch_subdir>  (1052) 
/opt/xchem-fragalysis-2/maxwin/BulkDock/SCRATCH/511024/C14979-P20

>  <fragmenstein_runtime>  (1052) 
33.028886795043945

>  <fragmenstein_outcome>  (1052) 
too moved

>  <fragmenstein_mode>  (1052) 
expansion

>  <fragmenstein_error>  (1052) 


$$$$
C54771-P101
     RDKit          3D

 43 45  0  0  0  0  0  0  0  0999 V2000
    0.4510  -14.9148   22.0782 C   0  0  0  0  0  0  0  0  0  0  0  0
    1.8477  -15.0483   20.6571 C   0  0  0  0  0  0  0  0  0  0  0  0
    2.5552  -14.7257   18.8698 C   0  0  0  0  0  0  0  0  0  0  0  0
    3.7863  -13.9201   18.4868 N   0  0  0  0  0  0  0  0  0  0  0  0
    4.1721  -13.3224   17.2375 C   0  0  0  0  0  0  0  0  0  0  0  0
    3.5835  -13.2395   16.1990 O   0  0  0  0  0  0  0  0  0  0  0  0
    5.5028  -12.6566   17.2934 C   0  0  0  0  0  0  0  0  0  0  0  0
    6.1610  -11.9002   16.3251 C   0  0  0  0  0  0  0  0  0  0  0  0
    7.3828  -11.4530   16.8802 C   0  0  0  0  0  0  0  0  0  0  0  0
    7.3978  -11.9286   18.1679 C   0  0  0  0  0  0  0  0  0  0  0  0
    6.2828  -12.6702   18.4280 O   0  0  0  0  0  0  0  0  0  0  0  0
    0.5166  -16.4312   20.4021 N   0  0  0  0  0  0  0  0  0  0  0  0
   -1.1220  -16.3231   19.9292 C   0  0  0  0  0  0  0  0  0  0  0  0
   -1.7742  -15.3572   19.5745 O   0  0  0  0  0  0  0  0  0  0  0  0
   -1.8384  -17.6467   19.8386 C   0  0  0  0  0  0  0  0  0  0  0  0
   -3.1644  -18.1627   19.2598 C   0  0  0  0  0  0  0  0  0  0  0  0
   -4.2797  -17.5763   18.8999 N   0  0  0  0  0  0  0  0  0  0  0  0
   -5.2325  -18.5599   18.7292 C   0  0  0  0  0  0  0  0  0  0  0  0
   -4.6701  -19.7984   18.8615 C   0  0  0  0  0  0  0  0  0  0  0  0
   -3.3495  -19.5402   19.0892 N   0  0  0  0  0  0  0  0  0  0  0  0
    3.0873  -14.4944   22.1698 C   0  0  0  0  0  0  0  0  0  0  0  0
    2.9814  -13.6721   23.6243 C   0  0  0  0  0  0  0  0  0  0  0  0
    3.3144  -12.7234   22.5716 C   0  0  0  0  0  0  0  0  0  0  0  0
   -0.2470  -15.7538   21.9734 H   0  0  0  0  0  0  0  0  0  0  0  0
    1.0487  -14.7309   23.0454 H   0  0  0  0  0  0  0  0  0  0  0  0
   -0.2225  -14.0911   22.3283 H   0  0  0  0  0  0  0  0  0  0  0  0
    1.8003  -14.3349   18.1728 H   0  0  0  0  0  0  0  0  0  0  0  0
    2.8315  -15.6295   18.3491 H   0  0  0  0  0  0  0  0  0  0  0  0
    4.5744  -13.8774   19.1329 H   0  0  0  0  0  0  0  0  0  0  0  0
    5.7768  -11.7094   15.3321 H   0  0  0  0  0  0  0  0  0  0  0  0
    8.1502  -10.8623   16.4004 H   0  0  0  0  0  0  0  0  0  0  0  0
    8.1006  -11.8526   18.9848 H   0  0  0  0  0  0  0  0  0  0  0  0
    0.7169  -17.3481   20.7133 H   0  0  0  0  0  0  0  0  0  0  0  0
   -1.6088  -18.1281   20.7724 H   0  0  0  0  0  0  0  0  0  0  0  0
   -1.3010  -17.9751   18.9525 H   0  0  0  0  0  0  0  0  0  0  0  0
   -6.2630  -18.3132   18.5120 H   0  0  0  0  0  0  0  0  0  0  0  0
   -5.0703  -20.7993   18.7985 H   0  0  0  0  0  0  0  0  0  0  0  0
   -2.6285  -20.2330   19.2354 H   0  0  0  0  0  0  0  0  0  0  0  0
    3.4850  -15.3272   22.7959 H   0  0  0  0  0  0  0  0  0  0  0  0
    3.6699  -13.9743   24.4109 H   0  0  0  0  0  0  0  0  0  0  0  0
    2.1244  -13.2792   24.1723 H   0  0  0  0  0  0  0  0  0  0  0  0
    2.6819  -11.9343   22.9183 H   0  0  0  0  0  0  0  0  0  0  0  0
    3.9802  -12.4286   21.7796 H   0  0  0  0  0  0  0  0  0  0  0  0
  1  2  1  0
  2  3  1  0
  3  4  1  0
  4  5  1  0
  5  6  2  0
  5  7  1  0
  7  8  2  0
  8  9  1  0
  9 10  2  0
 10 11  1  0
  2 12  1  0
 12 13  1  0
 13 14  2  0
 13 15  1  0
 15 16  1  0
 16 17  2  0
 17 18  1  0
 18 19  2  0
 19 20  1  0
  2 21  1  0
 21 22  1  0
 22 23  1  0
 11  7  1  0
 20 16  1  0
 23 21  1  0
  1 24  1  0
  1 25  1  0
  1 26  1  0
  3 27  1  0
  3 28  1  0
  4 29  1  0
  8 30  1  0
  9 31  1  0
 10 32  1  0
 12 33  1  0
 15 34  1  0
 15 35  1  0
 18 36  1  0
 19 37  1  0
 20 38  1  0
 21 39  1  0
 22 40  1  0
 22 41  1  0
 23 42  1  0
 23 43  1  0
M  END
>  <Energy>  (1053) 
528.81457567304426

>  <compound_id>  (1053) 
54771

>  <target_id>  (1053) 
1

>  <reference_id>  (1053) 
101

>  <inspiration_ids>  (1053) 
[101, 20]

>  <energy_score>  (1053) 
446.3527253898992

>  <distance_score>  (1053) 
13.158580860249094

>  <path>  (1053) 
/opt/xchem-fragalysis-2/maxwin/BulkDock/SCRATCH/511024/C54771-P101/C54771-P101.minimised.mol

>  <scratch_subdir>  (1053) 
/opt/xchem-fragalysis-2/maxwin/BulkDock/SCRATCH/511024/C54771-P101

>  <fragmenstein_runtime>  (1053) 
41.497894287109375

>  <fragmenstein_outcome>  (1053) 
too moved

>  <fragmenstein_mode>  (1053) 
expansion

>  <fragmenstein_error>  (1053) 


$$$$
C54771-P20
     RDKit          3D

 43 45  0  0  0  0  0  0  0  0999 V2000
   -3.1544   -9.7118   23.7452 C   0  0  0  0  0  0  0  0  0  0  0  0
   -3.3933  -11.6042   23.9111 C   0  0  0  0  0  0  0  0  0  0  0  0
   -2.9378  -11.0056   21.8636 C   0  0  0  0  0  0  0  0  0  0  0  0
   -2.1648   -9.9645   20.9830 N   0  0  0  0  0  0  0  0  0  0  0  0
   -2.1589   -9.7550   19.4852 C   0  0  0  0  0  0  0  0  0  0  0  0
   -2.7729  -10.3184   18.6206 O   0  0  0  0  0  0  0  0  0  0  0  0
   -1.2602   -8.6701   18.8682 C   0  0  0  0  0  0  0  0  0  0  0  0
    0.0270   -8.1695   19.0927 C   0  0  0  0  0  0  0  0  0  0  0  0
    0.4614   -7.3886   17.9879 C   0  0  0  0  0  0  0  0  0  0  0  0
   -0.6005   -7.3930   17.1260 C   0  0  0  0  0  0  0  0  0  0  0  0
   -1.6174   -8.1595   17.6155 O   0  0  0  0  0  0  0  0  0  0  0  0
   -3.9339  -12.9312   24.4187 N   0  0  0  0  0  0  0  0  0  0  0  0
   -3.0207  -14.9479   24.8357 C   0  0  0  0  0  0  0  0  0  0  0  0
   -1.8610  -15.0326   24.4707 O   0  0  0  0  0  0  0  0  0  0  0  0
   -3.4914  -16.8386   26.0157 C   0  0  0  0  0  0  0  0  0  0  0  0
   -4.9153  -18.0870   27.2621 C   0  0  0  0  0  0  0  0  0  0  0  0
   -5.6760  -19.2892   26.1551 N   0  0  0  0  0  0  0  0  0  0  0  0
   -4.7369  -20.2820   25.3503 C   0  0  0  0  0  0  0  0  0  0  0  0
   -5.0362  -21.0765   26.3208 C   0  0  0  0  0  0  0  0  0  0  0  0
   -5.5880  -19.8060   26.9987 N   0  0  0  0  0  0  0  0  0  0  0  0
   -2.1683  -11.9550   25.5309 C   0  0  0  0  0  0  0  0  0  0  0  0
   -0.0938  -12.3270   26.0362 C   0  0  0  0  0  0  0  0  0  0  0  0
   -1.5645  -13.2496   25.5366 C   0  0  0  0  0  0  0  0  0  0  0  0
   -3.7956   -9.2426   22.9989 H   0  0  0  0  0  0  0  0  0  0  0  0
   -2.6496   -9.3179   24.6310 H   0  0  0  0  0  0  0  0  0  0  0  0
   -2.2811   -9.3801   23.1417 H   0  0  0  0  0  0  0  0  0  0  0  0
   -2.5203  -11.8378   21.2606 H   0  0  0  0  0  0  0  0  0  0  0  0
   -3.8920  -10.7474   21.3835 H   0  0  0  0  0  0  0  0  0  0  0  0
   -1.4610   -9.3687   21.4053 H   0  0  0  0  0  0  0  0  0  0  0  0
    0.5860   -8.4245   19.9763 H   0  0  0  0  0  0  0  0  0  0  0  0
    1.4103   -6.8897   17.8583 H   0  0  0  0  0  0  0  0  0  0  0  0
   -0.7864   -6.9446   16.1604 H   0  0  0  0  0  0  0  0  0  0  0  0
   -4.9035  -12.9463   24.6430 H   0  0  0  0  0  0  0  0  0  0  0  0
   -2.8337  -16.7746   26.9760 H   0  0  0  0  0  0  0  0  0  0  0  0
   -2.6435  -17.5080   25.6550 H   0  0  0  0  0  0  0  0  0  0  0  0
   -4.7166  -20.8992   24.4689 H   0  0  0  0  0  0  0  0  0  0  0  0
   -5.2736  -22.1054   26.6037 H   0  0  0  0  0  0  0  0  0  0  0  0
   -6.5210  -19.8924   27.3373 H   0  0  0  0  0  0  0  0  0  0  0  0
   -2.8128  -11.6646   26.3471 H   0  0  0  0  0  0  0  0  0  0  0  0
    0.4785  -11.7029   26.7825 H   0  0  0  0  0  0  0  0  0  0  0  0
    0.7073  -13.1323   26.1057 H   0  0  0  0  0  0  0  0  0  0  0  0
   -0.9910  -13.7473   24.7917 H   0  0  0  0  0  0  0  0  0  0  0  0
   -2.0670  -14.0003   26.1665 H   0  0  0  0  0  0  0  0  0  0  0  0
  1  2  1  0
  2  3  1  0
  3  4  1  0
  4  5  1  0
  5  6  2  0
  5  7  1  0
  7  8  2  0
  8  9  1  0
  9 10  2  0
 10 11  1  0
  2 12  1  0
 12 13  1  0
 13 14  2  0
 13 15  1  0
 15 16  1  0
 16 17  2  0
 17 18  1  0
 18 19  2  0
 19 20  1  0
  2 21  1  0
 21 22  1  0
 22 23  1  0
 11  7  1  0
 20 16  1  0
 23 21  1  0
  1 24  1  0
  1 25  1  0
  1 26  1  0
  3 27  1  0
  3 28  1  0
  4 29  1  0
  8 30  1  0
  9 31  1  0
 10 32  1  0
 12 33  1  0
 15 34  1  0
 15 35  1  0
 18 36  1  0
 19 37  1  0
 20 38  1  0
 21 39  1  0
 22 40  1  0
 22 41  1  0
 23 42  1  0
 23 43  1  0
M  END
>  <Energy>  (1054) 
1956.1383238298156

>  <compound_id>  (1054) 
54771

>  <target_id>  (1054) 
1

>  <reference_id>  (1054) 
20

>  <inspiration_ids>  (1054) 
[101, 20]

>  <energy_score>  (1054) 
1873.6764735467023

>  <distance_score>  (1054) 
13.541448485715232

>  <path>  (1054) 
/opt/xchem-fragalysis-2/maxwin/BulkDock/SCRATCH/511024/C54771-P20/C54771-P20.minimised.mol

>  <scratch_subdir>  (1054) 
/opt/xchem-fragalysis-2/maxwin/BulkDock/SCRATCH/511024/C54771-P20

>  <fragmenstein_runtime>  (1054) 
26.992125272750854

>  <fragmenstein_outcome>  (1054) 
too moved

>  <fragmenstein_mode>  (1054) 
expansion

>  <fragmenstein_error>  (1054) 


$$$$
C54772-P101
     RDKit          3D

 37 38  0  0  0  0  0  0  0  0999 V2000
   -9.1243  -24.8576   28.7214 C   0  0  0  0  0  0  0  0  0  0  0  0
   -8.8218  -23.4083   27.9538 C   0  0  0  0  0  0  0  0  0  0  0  0
  -10.4555  -22.6073   28.1265 C   0  0  0  0  0  0  0  0  0  0  0  0
  -11.8322  -23.2474   29.1035 S   0  0  0  0  0  0  0  0  0  0  0  0
  -12.1794  -24.6875   28.1001 C   0  0  0  0  0  0  0  0  0  0  0  0
  -11.3490  -23.6278   30.6278 O   0  0  0  0  0  0  0  0  0  0  0  0
   -7.4043  -23.1983   26.6566 N   0  0  0  0  0  0  0  0  0  0  0  0
   -5.9071  -22.8051   26.8187 C   0  0  0  0  0  0  0  0  0  0  0  0
   -5.3088  -22.4626   27.7689 O   0  0  0  0  0  0  0  0  0  0  0  0
   -4.9785  -22.9324   25.5721 C   0  0  0  0  0  0  0  0  0  0  0  0
   -5.2457  -23.6914   24.4297 C   0  0  0  0  0  0  0  0  0  0  0  0
   -4.1459  -23.9359   23.6866 N   0  0  0  0  0  0  0  0  0  0  0  0
   -3.2166  -23.2175   24.2594 C   0  0  0  0  0  0  0  0  0  0  0  0
   -3.7063  -22.3379   25.2202 N   0  0  0  0  0  0  0  0  0  0  0  0
   -3.0104  -21.0431   25.4335 C   0  0  0  0  0  0  0  0  0  0  0  0
   -1.6541  -20.8427   25.0171 C   0  0  0  0  0  0  0  0  0  0  0  0
   -0.9853  -19.5972   25.1128 C   0  0  0  0  0  0  0  0  0  0  0  0
   -1.6604  -18.4930   25.6091 C   0  0  0  0  0  0  0  0  0  0  0  0
   -2.9963  -18.6339   25.9586 C   0  0  0  0  0  0  0  0  0  0  0  0
   -3.6536  -19.8920   25.8889 C   0  0  0  0  0  0  0  0  0  0  0  0
   -8.2309  -25.3990   28.9183 H   0  0  0  0  0  0  0  0  0  0  0  0
   -9.7258  -25.5262   28.0963 H   0  0  0  0  0  0  0  0  0  0  0  0
   -9.5940  -24.7580   29.6943 H   0  0  0  0  0  0  0  0  0  0  0  0
   -9.3337  -23.8836   27.0841 H   0  0  0  0  0  0  0  0  0  0  0  0
  -10.9722  -22.5626   27.1678 H   0  0  0  0  0  0  0  0  0  0  0  0
  -10.3174  -21.6000   28.5033 H   0  0  0  0  0  0  0  0  0  0  0  0
  -11.7658  -24.5983   27.0926 H   0  0  0  0  0  0  0  0  0  0  0  0
  -11.7861  -25.5850   28.5735 H   0  0  0  0  0  0  0  0  0  0  0  0
  -13.2592  -24.7596   27.9895 H   0  0  0  0  0  0  0  0  0  0  0  0
   -7.5656  -23.5246   25.7150 H   0  0  0  0  0  0  0  0  0  0  0  0
   -6.1764  -24.1623   24.1556 H   0  0  0  0  0  0  0  0  0  0  0  0
   -2.1920  -23.2085   23.9195 H   0  0  0  0  0  0  0  0  0  0  0  0
   -1.0533  -21.6678   24.6428 H   0  0  0  0  0  0  0  0  0  0  0  0
    0.0602  -19.5237   24.8266 H   0  0  0  0  0  0  0  0  0  0  0  0
   -1.1724  -17.5408   25.7692 H   0  0  0  0  0  0  0  0  0  0  0  0
   -3.5462  -17.7807   26.3531 H   0  0  0  0  0  0  0  0  0  0  0  0
   -4.6837  -19.9311   26.2258 H   0  0  0  0  0  0  0  0  0  0  0  0
  1  2  1  0
  2  3  1  0
  3  4  1  0
  4  5  1  0
  4  6  1  0
  2  7  1  0
  7  8  1  0
  8  9  2  0
  8 10  1  0
 10 11  2  0
 11 12  1  0
 12 13  2  0
 13 14  1  0
 14 15  1  0
 15 16  2  0
 16 17  1  0
 17 18  2  0
 18 19  1  0
 19 20  2  0
 14 10  1  0
 20 15  1  0
  1 21  1  0
  1 22  1  0
  1 23  1  0
  2 24  1  0
  3 25  1  0
  3 26  1  0
  5 27  1  0
  5 28  1  0
  5 29  1  0
  7 30  1  0
 11 31  1  0
 13 32  1  0
 16 33  1  0
 17 34  1  0
 18 35  1  0
 19 36  1  0
 20 37  1  0
M  CHG  2   4   1   6  -1
M  END
>  <Energy>  (1055) 
203.8939587678401

>  <compound_id>  (1055) 
54772

>  <target_id>  (1055) 
1

>  <reference_id>  (1055) 
101

>  <inspiration_ids>  (1055) 
[101, 20]

>  <energy_score>  (1055) 
163.9908069726655

>  <distance_score>  (1055) 
17.467346330831614

>  <path>  (1055) 
/opt/xchem-fragalysis-2/maxwin/BulkDock/SCRATCH/511024/C54772-P101/C54772-P101.minimised.mol

>  <scratch_subdir>  (1055) 
/opt/xchem-fragalysis-2/maxwin/BulkDock/SCRATCH/511024/C54772-P101

>  <fragmenstein_runtime>  (1055) 
36.11673665046692

>  <fragmenstein_outcome>  (1055) 
too moved

>  <fragmenstein_mode>  (1055) 
expansion

>  <fragmenstein_error>  (1055) 


$$$$
C54772-P20
     RDKit          3D

 37 38  0  0  0  0  0  0  0  0999 V2000
    0.6094  -19.9136   15.7180 C   0  0  0  0  0  0  0  0  0  0  0  0
    0.7283  -20.4286   17.1515 C   0  0  0  0  0  0  0  0  0  0  0  0
    2.0915  -21.0715   17.4354 C   0  0  0  0  0  0  0  0  0  0  0  0
    2.2476  -22.7174   16.6704 S   0  0  0  0  0  0  0  0  0  0  0  0
    3.7389  -23.1904   17.5826 C   0  0  0  0  0  0  0  0  0  0  0  0
    2.6933  -22.4982   15.0862 O   0  0  0  0  0  0  0  0  0  0  0  0
    0.4675  -19.3354   18.0768 N   0  0  0  0  0  0  0  0  0  0  0  0
    0.4706  -19.2948   19.4979 C   0  0  0  0  0  0  0  0  0  0  0  0
    0.7653  -20.1287   20.3019 O   0  0  0  0  0  0  0  0  0  0  0  0
   -0.0543  -17.9788   19.9894 C   0  0  0  0  0  0  0  0  0  0  0  0
   -1.3680  -18.1395   20.4085 C   0  0  0  0  0  0  0  0  0  0  0  0
   -2.0827  -17.1115   19.9958 N   0  0  0  0  0  0  0  0  0  0  0  0
   -1.2078  -16.1506   19.8973 C   0  0  0  0  0  0  0  0  0  0  0  0
    0.4147  -16.3983   20.2325 N   0  0  0  0  0  0  0  0  0  0  0  0
    1.9700  -15.2114   20.1207 C   0  0  0  0  0  0  0  0  0  0  0  0
    2.7007  -14.3953   21.0463 C   0  0  0  0  0  0  0  0  0  0  0  0
    3.8484  -13.1453   20.8712 C   0  0  0  0  0  0  0  0  0  0  0  0
    4.5798  -12.9983   19.7231 C   0  0  0  0  0  0  0  0  0  0  0  0
    3.8771  -13.6725   18.6790 C   0  0  0  0  0  0  0  0  0  0  0  0
    2.6421  -14.7126   18.7528 C   0  0  0  0  0  0  0  0  0  0  0  0
   -0.3574  -19.4209   15.5633 H   0  0  0  0  0  0  0  0  0  0  0  0
    0.6829  -20.7236   14.9877 H   0  0  0  0  0  0  0  0  0  0  0  0
    1.3898  -19.1768   15.4972 H   0  0  0  0  0  0  0  0  0  0  0  0
   -0.0665  -21.1621   17.3341 H   0  0  0  0  0  0  0  0  0  0  0  0
    2.2313  -21.2135   18.5107 H   0  0  0  0  0  0  0  0  0  0  0  0
    2.9078  -20.4483   17.0641 H   0  0  0  0  0  0  0  0  0  0  0  0
    4.5275  -22.4536   17.4135 H   0  0  0  0  0  0  0  0  0  0  0  0
    3.5098  -23.2597   18.6485 H   0  0  0  0  0  0  0  0  0  0  0  0
    4.0713  -24.1663   17.2211 H   0  0  0  0  0  0  0  0  0  0  0  0
    0.0790  -18.4733   17.7252 H   0  0  0  0  0  0  0  0  0  0  0  0
   -1.8575  -19.0794   20.6407 H   0  0  0  0  0  0  0  0  0  0  0  0
   -1.5081  -15.2219   19.4367 H   0  0  0  0  0  0  0  0  0  0  0  0
    2.8126  -14.6562   22.1473 H   0  0  0  0  0  0  0  0  0  0  0  0
    3.9201  -12.4774   21.7113 H   0  0  0  0  0  0  0  0  0  0  0  0
    5.3893  -12.3049   19.5940 H   0  0  0  0  0  0  0  0  0  0  0  0
    3.9749  -12.9858   17.8652 H   0  0  0  0  0  0  0  0  0  0  0  0
    2.2267  -15.0144   17.8014 H   0  0  0  0  0  0  0  0  0  0  0  0
  1  2  1  0
  2  3  1  0
  3  4  1  0
  4  5  1  0
  4  6  1  0
  2  7  1  0
  7  8  1  0
  8  9  2  0
  8 10  1  0
 10 11  2  0
 11 12  1  0
 12 13  2  0
 13 14  1  0
 14 15  1  0
 15 16  2  0
 16 17  1  0
 17 18  2  0
 18 19  1  0
 19 20  2  0
 14 10  1  0
 20 15  1  0
  1 21  1  0
  1 22  1  0
  1 23  1  0
  2 24  1  0
  3 25  1  0
  3 26  1  0
  5 27  1  0
  5 28  1  0
  5 29  1  0
  7 30  1  0
 11 31  1  0
 13 32  1  0
 16 33  1  0
 17 34  1  0
 18 35  1  0
 19 36  1  0
 20 37  1  0
M  CHG  2   4   1   6  -1
M  END
>  <Energy>  (1056) 
334.79540172938573

>  <compound_id>  (1056) 
54772

>  <target_id>  (1056) 
1

>  <reference_id>  (1056) 
20

>  <inspiration_ids>  (1056) 
[101, 20]

>  <energy_score>  (1056) 
294.89224993421044

>  <distance_score>  (1056) 
15.483073313679673

>  <path>  (1056) 
/opt/xchem-fragalysis-2/maxwin/BulkDock/SCRATCH/511024/C54772-P20/C54772-P20.minimised.mol

>  <scratch_subdir>  (1056) 
/opt/xchem-fragalysis-2/maxwin/BulkDock/SCRATCH/511024/C54772-P20

>  <fragmenstein_runtime>  (1056) 
30.776620388031006

>  <fragmenstein_outcome>  (1056) 
too moved

>  <fragmenstein_mode>  (1056) 
expansion

>  <fragmenstein_error>  (1056) 


$$$$
C54774-P101
     RDKit          3D

 47 48  0  0  0  0  0  0  0  0999 V2000
   -5.1657  -23.0302   21.6043 C   0  0  0  0  0  0  0  0  0  0  0  0
   -4.7459  -22.9165   22.9804 N   0  0  0  0  0  0  0  0  0  0  0  0
   -5.2399  -23.6538   24.0060 C   0  0  0  0  0  0  0  0  0  0  0  0
   -4.7235  -23.2903   25.1580 N   0  0  0  0  0  0  0  0  0  0  0  0
   -3.8657  -22.2744   24.8603 C   0  0  0  0  0  0  0  0  0  0  0  0
   -3.7843  -22.0757   23.4982 C   0  0  0  0  0  0  0  0  0  0  0  0
   -2.8823  -21.2520   22.6022 C   0  0  0  0  0  0  0  0  0  0  0  0
   -1.5142  -20.6449   23.2947 C   0  0  0  0  0  0  0  0  0  0  0  0
   -0.0649  -19.2234   23.2217 C   0  0  0  0  0  0  0  0  0  0  0  0
   -0.1937  -18.4906   22.0939 O   0  0  0  0  0  0  0  0  0  0  0  0
    1.1468  -19.1822   24.4369 N   0  0  0  0  0  0  0  0  0  0  0  0
    2.8675  -18.1548   24.5627 C   0  0  0  0  0  0  0  0  0  0  0  0
    4.2642  -16.6633   24.0621 C   0  0  0  0  0  0  0  0  0  0  0  0
    6.2723  -16.5314   24.0360 C   0  0  0  0  0  0  0  0  0  0  0  0
    8.2796  -15.7847   23.8339 C   0  0  0  0  0  0  0  0  0  0  0  0
    9.1177  -14.0240   24.0502 C   0  0  0  0  0  0  0  0  0  0  0  0
   10.5300  -13.2694   23.9945 C   0  0  0  0  0  0  0  0  0  0  0  0
   10.4790  -11.8738   24.3152 C   0  0  0  0  0  0  0  0  0  0  0  0
   11.5307  -10.9796   24.0557 C   0  0  0  0  0  0  0  0  0  0  0  0
   12.7102  -11.4599   23.5133 C   0  0  0  0  0  0  0  0  0  0  0  0
   12.8319  -12.8280   23.2693 C   0  0  0  0  0  0  0  0  0  0  0  0
   11.7589  -13.7145   23.4975 C   0  0  0  0  0  0  0  0  0  0  0  0
   -4.3901  -23.5651   21.0509 H   0  0  0  0  0  0  0  0  0  0  0  0
   -6.1079  -23.5827   21.5552 H   0  0  0  0  0  0  0  0  0  0  0  0
   -5.3122  -22.0274   21.1958 H   0  0  0  0  0  0  0  0  0  0  0  0
   -6.0052  -24.3951   23.8567 H   0  0  0  0  0  0  0  0  0  0  0  0
   -3.3294  -21.7658   25.6464 H   0  0  0  0  0  0  0  0  0  0  0  0
   -2.6267  -22.0478   21.8852 H   0  0  0  0  0  0  0  0  0  0  0  0
   -3.4527  -20.5001   22.0605 H   0  0  0  0  0  0  0  0  0  0  0  0
   -0.9267  -21.5777   23.4119 H   0  0  0  0  0  0  0  0  0  0  0  0
   -2.1775  -20.4774   24.1416 H   0  0  0  0  0  0  0  0  0  0  0  0
    0.9897  -19.8579   25.0343 H   0  0  0  0  0  0  0  0  0  0  0  0
    2.9010  -18.0149   25.6554 H   0  0  0  0  0  0  0  0  0  0  0  0
    3.3806  -19.1162   24.5296 H   0  0  0  0  0  0  0  0  0  0  0  0
    4.3077  -15.7663   24.7453 H   0  0  0  0  0  0  0  0  0  0  0  0
    3.8116  -16.0651   23.2936 H   0  0  0  0  0  0  0  0  0  0  0  0
    6.5574  -17.4252   23.5575 H   0  0  0  0  0  0  0  0  0  0  0  0
    6.3497  -16.2314   25.0734 H   0  0  0  0  0  0  0  0  0  0  0  0
    8.3417  -15.7188   24.9601 H   0  0  0  0  0  0  0  0  0  0  0  0
    8.5584  -16.7259   23.4356 H   0  0  0  0  0  0  0  0  0  0  0  0
    8.5508  -13.2110   23.6368 H   0  0  0  0  0  0  0  0  0  0  0  0
    8.8275  -13.7686   25.0768 H   0  0  0  0  0  0  0  0  0  0  0  0
    9.5569  -11.4620   24.7269 H   0  0  0  0  0  0  0  0  0  0  0  0
   11.4167   -9.9252   24.2895 H   0  0  0  0  0  0  0  0  0  0  0  0
   13.5428  -10.7907   23.3181 H   0  0  0  0  0  0  0  0  0  0  0  0
   13.7674  -13.2185   22.8734 H   0  0  0  0  0  0  0  0  0  0  0  0
   11.9438  -14.7449   23.2375 H   0  0  0  0  0  0  0  0  0  0  0  0
  1  2  1  0
  2  3  1  0
  3  4  2  0
  4  5  1  0
  5  6  2  0
  6  7  1  0
  7  8  1  0
  8  9  1  0
  9 10  2  0
  9 11  1  0
 11 12  1  0
 12 13  1  0
 13 14  1  0
 14 15  1  0
 15 16  1  0
 16 17  1  0
 17 18  2  0
 18 19  1  0
 19 20  2  0
 20 21  1  0
 21 22  2  0
  6  2  1  0
 22 17  1  0
  1 23  1  0
  1 24  1  0
  1 25  1  0
  3 26  1  0
  5 27  1  0
  7 28  1  0
  7 29  1  0
  8 30  1  0
  8 31  1  0
 11 32  1  0
 12 33  1  0
 12 34  1  0
 13 35  1  0
 13 36  1  0
 14 37  1  0
 14 38  1  0
 15 39  1  0
 15 40  1  0
 16 41  1  0
 16 42  1  0
 18 43  1  0
 19 44  1  0
 20 45  1  0
 21 46  1  0
 22 47  1  0
M  END
>  <Energy>  (1057) 
725.26437742851419

>  <compound_id>  (1057) 
54774

>  <target_id>  (1057) 
1

>  <reference_id>  (1057) 
101

>  <inspiration_ids>  (1057) 
[101, 20]

>  <energy_score>  (1057) 
699.605173884434

>  <distance_score>  (1057) 
11.738210966338883

>  <path>  (1057) 
/opt/xchem-fragalysis-2/maxwin/BulkDock/SCRATCH/511024/C54774-P101/C54774-P101.minimised.mol

>  <scratch_subdir>  (1057) 
/opt/xchem-fragalysis-2/maxwin/BulkDock/SCRATCH/511024/C54774-P101

>  <fragmenstein_runtime>  (1057) 
28.02786159515381

>  <fragmenstein_outcome>  (1057) 
too moved

>  <fragmenstein_mode>  (1057) 
expansion

>  <fragmenstein_error>  (1057) 


$$$$
C54774-P20
     RDKit          3D

 47 48  0  0  0  0  0  0  0  0999 V2000
   -9.2491  -24.3829   28.9426 C   0  0  0  0  0  0  0  0  0  0  0  0
   -8.6560  -23.1447   27.8323 N   0  0  0  0  0  0  0  0  0  0  0  0
  -10.1289  -23.4133   27.2802 C   0  0  0  0  0  0  0  0  0  0  0  0
  -10.8362  -22.5016   27.8486 N   0  0  0  0  0  0  0  0  0  0  0  0
   -9.8524  -21.5304   28.1360 C   0  0  0  0  0  0  0  0  0  0  0  0
   -8.1083  -21.4627   27.4972 C   0  0  0  0  0  0  0  0  0  0  0  0
   -6.7170  -19.8628   27.4011 C   0  0  0  0  0  0  0  0  0  0  0  0
   -5.4065  -18.3823   26.6511 C   0  0  0  0  0  0  0  0  0  0  0  0
   -4.2950  -16.5911   26.4479 C   0  0  0  0  0  0  0  0  0  0  0  0
   -4.8404  -15.6226   26.9593 O   0  0  0  0  0  0  0  0  0  0  0  0
   -2.7211  -16.4861   25.4561 N   0  0  0  0  0  0  0  0  0  0  0  0
   -1.5825  -14.8800   24.8324 C   0  0  0  0  0  0  0  0  0  0  0  0
    0.4204  -14.3098   24.1215 C   0  0  0  0  0  0  0  0  0  0  0  0
    2.3794  -13.4529   23.6686 C   0  0  0  0  0  0  0  0  0  0  0  0
    3.4109  -12.8747   21.9060 C   0  0  0  0  0  0  0  0  0  0  0  0
    5.0691  -12.4479   20.7127 C   0  0  0  0  0  0  0  0  0  0  0  0
    5.9783  -11.6325   19.1706 C   0  0  0  0  0  0  0  0  0  0  0  0
    5.6028  -11.9982   17.7564 C   0  0  0  0  0  0  0  0  0  0  0  0
    6.5014  -11.8593   16.4400 C   0  0  0  0  0  0  0  0  0  0  0  0
    7.9281  -11.3640   16.3560 C   0  0  0  0  0  0  0  0  0  0  0  0
    8.4144  -10.6738   17.6189 C   0  0  0  0  0  0  0  0  0  0  0  0
    7.3084  -10.7563   18.9778 C   0  0  0  0  0  0  0  0  0  0  0  0
  -10.2152  -24.1058   29.3959 H   0  0  0  0  0  0  0  0  0  0  0  0
   -9.5043  -25.2425   28.2917 H   0  0  0  0  0  0  0  0  0  0  0  0
   -8.5222  -24.8221   29.5980 H   0  0  0  0  0  0  0  0  0  0  0  0
  -10.3707  -24.3161   26.7353 H   0  0  0  0  0  0  0  0  0  0  0  0
  -10.2469  -20.8592   28.8950 H   0  0  0  0  0  0  0  0  0  0  0  0
   -7.0577  -19.2566   28.2519 H   0  0  0  0  0  0  0  0  0  0  0  0
   -5.7940  -20.4902   27.4123 H   0  0  0  0  0  0  0  0  0  0  0  0
   -5.0910  -18.3025   27.7106 H   0  0  0  0  0  0  0  0  0  0  0  0
   -6.3023  -17.8130   26.3493 H   0  0  0  0  0  0  0  0  0  0  0  0
   -2.4211  -17.4155   25.2117 H   0  0  0  0  0  0  0  0  0  0  0  0
   -1.8945  -15.1425   23.8533 H   0  0  0  0  0  0  0  0  0  0  0  0
   -2.0424  -14.0754   25.4182 H   0  0  0  0  0  0  0  0  0  0  0  0
   -0.0815  -13.9649   23.2270 H   0  0  0  0  0  0  0  0  0  0  0  0
    0.7220  -13.8812   25.1098 H   0  0  0  0  0  0  0  0  0  0  0  0
    3.2228  -13.9719   24.1366 H   0  0  0  0  0  0  0  0  0  0  0  0
    2.2498  -12.4454   24.0618 H   0  0  0  0  0  0  0  0  0  0  0  0
    3.3577  -13.9913   21.7954 H   0  0  0  0  0  0  0  0  0  0  0  0
    3.0101  -13.1781   20.9826 H   0  0  0  0  0  0  0  0  0  0  0  0
    5.1457  -11.4608   21.1335 H   0  0  0  0  0  0  0  0  0  0  0  0
    4.5001  -12.8608   19.8845 H   0  0  0  0  0  0  0  0  0  0  0  0
    4.6758  -12.5626   17.6087 H   0  0  0  0  0  0  0  0  0  0  0  0
    6.0629  -12.2877   15.5354 H   0  0  0  0  0  0  0  0  0  0  0  0
    8.5318  -11.4613   15.4651 H   0  0  0  0  0  0  0  0  0  0  0  0
    9.4728  -10.6335   17.7982 H   0  0  0  0  0  0  0  0  0  0  0  0
    7.9343  -10.4473   19.7452 H   0  0  0  0  0  0  0  0  0  0  0  0
  1  2  1  0
  2  3  1  0
  3  4  2  0
  4  5  1  0
  5  6  2  0
  6  7  1  0
  7  8  1  0
  8  9  1  0
  9 10  2  0
  9 11  1  0
 11 12  1  0
 12 13  1  0
 13 14  1  0
 14 15  1  0
 15 16  1  0
 16 17  1  0
 17 18  2  0
 18 19  1  0
 19 20  2  0
 20 21  1  0
 21 22  2  0
  6  2  1  0
 22 17  1  0
  1 23  1  0
  1 24  1  0
  1 25  1  0
  3 26  1  0
  5 27  1  0
  7 28  1  0
  7 29  1  0
  8 30  1  0
  8 31  1  0
 11 32  1  0
 12 33  1  0
 12 34  1  0
 13 35  1  0
 13 36  1  0
 14 37  1  0
 14 38  1  0
 15 39  1  0
 15 40  1  0
 16 41  1  0
 16 42  1  0
 18 43  1  0
 19 44  1  0
 20 45  1  0
 21 46  1  0
 22 47  1  0
M  END
>  <Energy>  (1058) 
1718.4653206496134

>  <compound_id>  (1058) 
54774

>  <target_id>  (1058) 
1

>  <reference_id>  (1058) 
20

>  <inspiration_ids>  (1058) 
[101, 20]

>  <energy_score>  (1058) 
1692.8061171055492

>  <distance_score>  (1058) 
9.758943036767937

>  <path>  (1058) 
/opt/xchem-fragalysis-2/maxwin/BulkDock/SCRATCH/511024/C54774-P20/C54774-P20.minimised.mol

>  <scratch_subdir>  (1058) 
/opt/xchem-fragalysis-2/maxwin/BulkDock/SCRATCH/511024/C54774-P20

>  <fragmenstein_runtime>  (1058) 
33.13400387763977

>  <fragmenstein_outcome>  (1058) 
too moved

>  <fragmenstein_mode>  (1058) 
expansion

>  <fragmenstein_error>  (1058) 


$$$$
C54775-P101
     RDKit          3D

 38 39  0  0  0  0  0  0  0  0999 V2000
   -1.0367  -14.7390   27.6637 C   0  0  0  0  0  0  0  0  0  0  0  0
    0.8130  -14.2882   26.8138 C   0  0  0  0  0  0  0  0  0  0  0  0
    0.6323  -13.8819   25.4496 N   0  0  0  0  0  0  0  0  0  0  0  0
   -0.6297  -13.3198   25.8539 C   0  0  0  0  0  0  0  0  0  0  0  0
    0.6309  -12.2346   26.2016 N   0  0  0  0  0  0  0  0  0  0  0  0
    1.5610  -13.1868   25.8536 C   0  0  0  0  0  0  0  0  0  0  0  0
    2.5446  -13.1596   24.0901 C   0  0  0  0  0  0  0  0  0  0  0  0
    3.3702  -12.3006   22.5670 C   0  0  0  0  0  0  0  0  0  0  0  0
    3.4275  -11.1358   22.7440 O   0  0  0  0  0  0  0  0  0  0  0  0
    4.0091  -13.0918   21.3139 N   0  0  0  0  0  0  0  0  0  0  0  0
    4.9129  -12.6036   20.1431 C   0  0  0  0  0  0  0  0  0  0  0  0
    6.5246  -12.5862   19.6845 C   0  0  0  0  0  0  0  0  0  0  0  0
    6.5156  -12.2812   18.1558 C   0  0  0  0  0  0  0  0  0  0  0  0
    7.5904  -11.6120   20.2788 C   0  0  0  0  0  0  0  0  0  0  0  0
    8.9052  -11.6112   19.7496 C   0  0  0  0  0  0  0  0  0  0  0  0
    9.8843  -10.7032   20.1710 C   0  0  0  0  0  0  0  0  0  0  0  0
    9.5817   -9.7662   21.1456 C   0  0  0  0  0  0  0  0  0  0  0  0
    8.3172   -9.7775   21.7248 C   0  0  0  0  0  0  0  0  0  0  0  0
    7.3420  -10.6902   21.2991 C   0  0  0  0  0  0  0  0  0  0  0  0
   -0.9369  -15.6269   28.3602 H   0  0  0  0  0  0  0  0  0  0  0  0
   -1.8999  -14.8870   26.9806 H   0  0  0  0  0  0  0  0  0  0  0  0
   -1.4773  -14.1686   28.5098 H   0  0  0  0  0  0  0  0  0  0  0  0
    0.4143  -14.2775   24.5310 H   0  0  0  0  0  0  0  0  0  0  0  0
   -1.6678  -13.2553   25.5007 H   0  0  0  0  0  0  0  0  0  0  0  0
    2.5670  -14.1446   23.6273 H   0  0  0  0  0  0  0  0  0  0  0  0
    1.8211  -12.3713   23.8964 H   0  0  0  0  0  0  0  0  0  0  0  0
    3.7357  -14.0582   21.3658 H   0  0  0  0  0  0  0  0  0  0  0  0
    5.0651  -11.6390   20.5655 H   0  0  0  0  0  0  0  0  0  0  0  0
    4.3607  -12.8483   19.2414 H   0  0  0  0  0  0  0  0  0  0  0  0
    6.9400  -13.5801   19.7433 H   0  0  0  0  0  0  0  0  0  0  0  0
    7.4914  -12.4024   17.6776 H   0  0  0  0  0  0  0  0  0  0  0  0
    6.1677  -11.2667   17.9693 H   0  0  0  0  0  0  0  0  0  0  0  0
    5.8407  -12.9692   17.6335 H   0  0  0  0  0  0  0  0  0  0  0  0
    9.1869  -12.3351   18.9872 H   0  0  0  0  0  0  0  0  0  0  0  0
   10.8779  -10.7401   19.7346 H   0  0  0  0  0  0  0  0  0  0  0  0
   10.3293   -9.0500   21.4692 H   0  0  0  0  0  0  0  0  0  0  0  0
    8.0720   -9.0645   22.5068 H   0  0  0  0  0  0  0  0  0  0  0  0
    6.3810  -10.6475   21.7988 H   0  0  0  0  0  0  0  0  0  0  0  0
  1  2  1  0
  2  3  1  0
  3  4  1  0
  4  5  2  0
  5  6  1  0
  6  7  1  0
  7  8  1  0
  8  9  2  0
  8 10  1  0
 10 11  1  0
 11 12  1  0
 12 13  1  0
 12 14  1  0
 14 15  2  0
 15 16  1  0
 16 17  2  0
 17 18  1  0
 18 19  2  0
  6  2  2  0
 19 14  1  0
  1 20  1  0
  1 21  1  0
  1 22  1  0
  3 23  1  0
  4 24  1  0
  7 25  1  0
  7 26  1  0
 10 27  1  0
 11 28  1  0
 11 29  1  0
 12 30  1  0
 13 31  1  0
 13 32  1  0
 13 33  1  0
 15 34  1  0
 16 35  1  0
 17 36  1  0
 18 37  1  0
 19 38  1  0
M  END
>  <Energy>  (1059) 
716.56789751469773

>  <compound_id>  (1059) 
54775

>  <target_id>  (1059) 
1

>  <reference_id>  (1059) 
101

>  <inspiration_ids>  (1059) 
[101, 20]

>  <energy_score>  (1059) 
638.7562487202051

>  <distance_score>  (1059) 
14.849141529790955

>  <path>  (1059) 
/opt/xchem-fragalysis-2/maxwin/BulkDock/SCRATCH/511024/C54775-P101/C54775-P101.minimised.mol

>  <scratch_subdir>  (1059) 
/opt/xchem-fragalysis-2/maxwin/BulkDock/SCRATCH/511024/C54775-P101

>  <fragmenstein_runtime>  (1059) 
29.179707765579224

>  <fragmenstein_outcome>  (1059) 
too moved

>  <fragmenstein_mode>  (1059) 
expansion

>  <fragmenstein_error>  (1059) 


$$$$
C54775-P20
     RDKit          3D

 38 39  0  0  0  0  0  0  0  0999 V2000
    2.6291  -15.7579   30.9920 C   0  0  0  0  0  0  0  0  0  0  0  0
    2.2497  -16.4755   29.7532 C   0  0  0  0  0  0  0  0  0  0  0  0
    1.4824  -17.6227   29.7809 N   0  0  0  0  0  0  0  0  0  0  0  0
    1.4474  -18.1281   28.5208 C   0  0  0  0  0  0  0  0  0  0  0  0
    2.1011  -17.3450   27.6949 N   0  0  0  0  0  0  0  0  0  0  0  0
    2.5065  -16.2133   28.4072 C   0  0  0  0  0  0  0  0  0  0  0  0
    3.2837  -14.9273   27.6966 C   0  0  0  0  0  0  0  0  0  0  0  0
    2.6023  -13.8686   26.3511 C   0  0  0  0  0  0  0  0  0  0  0  0
    1.5315  -13.3053   26.6153 O   0  0  0  0  0  0  0  0  0  0  0  0
    3.6516  -13.6710   24.8693 N   0  0  0  0  0  0  0  0  0  0  0  0
    3.4994  -12.4267   23.3472 C   0  0  0  0  0  0  0  0  0  0  0  0
    5.0016  -10.9845   22.8323 C   0  0  0  0  0  0  0  0  0  0  0  0
    6.4350  -11.0752   23.9357 C   0  0  0  0  0  0  0  0  0  0  0  0
    6.1683  -10.8524   21.4989 C   0  0  0  0  0  0  0  0  0  0  0  0
    7.1777   -9.8368   21.5372 C   0  0  0  0  0  0  0  0  0  0  0  0
    8.2309   -9.8257   20.6163 C   0  0  0  0  0  0  0  0  0  0  0  0
    8.2999  -10.8130   19.6378 C   0  0  0  0  0  0  0  0  0  0  0  0
    7.2987  -11.7789   19.5451 C   0  0  0  0  0  0  0  0  0  0  0  0
    6.2420  -11.7981   20.4579 C   0  0  0  0  0  0  0  0  0  0  0  0
    1.7613  -15.6204   31.6449 H   0  0  0  0  0  0  0  0  0  0  0  0
    3.3849  -16.3277   31.5419 H   0  0  0  0  0  0  0  0  0  0  0  0
    3.0466  -14.7711   30.7714 H   0  0  0  0  0  0  0  0  0  0  0  0
    1.0926  -18.0574   30.6048 H   0  0  0  0  0  0  0  0  0  0  0  0
    0.9603  -19.0588   28.2657 H   0  0  0  0  0  0  0  0  0  0  0  0
    4.0183  -15.4148   27.1120 H   0  0  0  0  0  0  0  0  0  0  0  0
    3.6709  -14.2520   28.4623 H   0  0  0  0  0  0  0  0  0  0  0  0
    4.4222  -14.3299   24.9042 H   0  0  0  0  0  0  0  0  0  0  0  0
    3.2871  -12.9096   22.4116 H   0  0  0  0  0  0  0  0  0  0  0  0
    2.5500  -11.9447   23.5782 H   0  0  0  0  0  0  0  0  0  0  0  0
    4.8376   -9.9569   23.1838 H   0  0  0  0  0  0  0  0  0  0  0  0
    7.3266  -11.5046   23.4661 H   0  0  0  0  0  0  0  0  0  0  0  0
    6.2604  -11.6768   24.8312 H   0  0  0  0  0  0  0  0  0  0  0  0
    6.6956  -10.0540   24.2443 H   0  0  0  0  0  0  0  0  0  0  0  0
    7.1436   -9.0554   22.2910 H   0  0  0  0  0  0  0  0  0  0  0  0
    8.9922   -9.0539   20.6652 H   0  0  0  0  0  0  0  0  0  0  0  0
    9.1158  -10.8312   18.9244 H   0  0  0  0  0  0  0  0  0  0  0  0
    7.3315  -12.5234   18.7532 H   0  0  0  0  0  0  0  0  0  0  0  0
    5.4816  -12.5707   20.3436 H   0  0  0  0  0  0  0  0  0  0  0  0
  1  2  1  0
  2  3  1  0
  3  4  1  0
  4  5  2  0
  5  6  1  0
  6  7  1  0
  7  8  1  0
  8  9  2  0
  8 10  1  0
 10 11  1  0
 11 12  1  0
 12 13  1  0
 12 14  1  0
 14 15  2  0
 15 16  1  0
 16 17  2  0
 17 18  1  0
 18 19  2  0
  6  2  2  0
 19 14  1  0
  1 20  1  0
  1 21  1  0
  1 22  1  0
  3 23  1  0
  4 24  1  0
  7 25  1  0
  7 26  1  0
 10 27  1  0
 11 28  1  0
 11 29  1  0
 12 30  1  0
 13 31  1  0
 13 32  1  0
 13 33  1  0
 15 34  1  0
 16 35  1  0
 17 36  1  0
 18 37  1  0
 19 38  1  0
M  END
>  <Energy>  (1060) 
361.482516115392

>  <compound_id>  (1060) 
54775

>  <target_id>  (1060) 
1

>  <reference_id>  (1060) 
20

>  <inspiration_ids>  (1060) 
[101, 20]

>  <energy_score>  (1060) 
283.67086732091013

>  <distance_score>  (1060) 
14.341374814984292

>  <path>  (1060) 
/opt/xchem-fragalysis-2/maxwin/BulkDock/SCRATCH/511024/C54775-P20/C54775-P20.minimised.mol

>  <scratch_subdir>  (1060) 
/opt/xchem-fragalysis-2/maxwin/BulkDock/SCRATCH/511024/C54775-P20

>  <fragmenstein_runtime>  (1060) 
28.82817268371582

>  <fragmenstein_outcome>  (1060) 
too moved

>  <fragmenstein_mode>  (1060) 
expansion

>  <fragmenstein_error>  (1060) 


$$$$
C54776-P101
     RDKit          3D

 38 39  0  0  0  0  0  0  0  0999 V2000
   10.6324  -16.7985   17.8783 C   0  0  0  0  0  0  0  0  0  0  0  0
   10.6783  -16.3529   19.3356 C   0  0  0  0  0  0  0  0  0  0  0  0
    9.3597  -15.7498   19.8583 C   0  0  0  0  0  0  0  0  0  0  0  0
    8.1978  -16.6971   19.8063 N   0  0  0  0  0  0  0  0  0  0  0  0
    7.7786  -17.8004   20.7530 C   0  0  0  0  0  0  0  0  0  0  0  0
    8.3227  -18.2365   21.7352 O   0  0  0  0  0  0  0  0  0  0  0  0
    6.4413  -18.4481   20.2878 C   0  0  0  0  0  0  0  0  0  0  0  0
    4.8801  -18.6383   21.0638 C   0  0  0  0  0  0  0  0  0  0  0  0
    3.2457  -19.6247   20.7347 N   0  0  0  0  0  0  0  0  0  0  0  0
    3.2920  -20.8105   19.9010 C   0  0  0  0  0  0  0  0  0  0  0  0
    4.8550  -20.7781   20.5756 N   0  0  0  0  0  0  0  0  0  0  0  0
    4.3002  -19.4671   21.9012 C   0  0  0  0  0  0  0  0  0  0  0  0
    3.3446  -19.5773   23.1889 C   0  0  0  0  0  0  0  0  0  0  0  0
    9.1635  -14.3576   19.1926 C   0  0  0  0  0  0  0  0  0  0  0  0
    9.9330  -13.2526   19.6363 C   0  0  0  0  0  0  0  0  0  0  0  0
    9.8980  -12.0128   18.9810 C   0  0  0  0  0  0  0  0  0  0  0  0
    9.0879  -11.8492   17.8647 C   0  0  0  0  0  0  0  0  0  0  0  0
    8.3035  -12.9133   17.4215 C   0  0  0  0  0  0  0  0  0  0  0  0
    8.3447  -14.1527   18.0736 C   0  0  0  0  0  0  0  0  0  0  0  0
    9.8195  -17.5098   17.7029 H   0  0  0  0  0  0  0  0  0  0  0  0
   10.5042  -15.9501   17.2003 H   0  0  0  0  0  0  0  0  0  0  0  0
   11.5720  -17.2933   17.6112 H   0  0  0  0  0  0  0  0  0  0  0  0
   10.9159  -17.2354   19.9437 H   0  0  0  0  0  0  0  0  0  0  0  0
   11.5112  -15.6521   19.4694 H   0  0  0  0  0  0  0  0  0  0  0  0
    9.5065  -15.5645   20.9301 H   0  0  0  0  0  0  0  0  0  0  0  0
    7.4601  -16.5366   19.1336 H   0  0  0  0  0  0  0  0  0  0  0  0
    6.8369  -19.4396   20.0448 H   0  0  0  0  0  0  0  0  0  0  0  0
    6.2031  -17.8217   19.4318 H   0  0  0  0  0  0  0  0  0  0  0  0
    2.7570  -21.6867   19.5826 H   0  0  0  0  0  0  0  0  0  0  0  0
    5.0120  -21.7313   20.8502 H   0  0  0  0  0  0  0  0  0  0  0  0
    3.1239  -18.6708   23.7684 H   0  0  0  0  0  0  0  0  0  0  0  0
    3.6649  -20.1857   24.0462 H   0  0  0  0  0  0  0  0  0  0  0  0
    2.5091  -20.0113   22.6539 H   0  0  0  0  0  0  0  0  0  0  0  0
   10.5931  -13.3676   20.4953 H   0  0  0  0  0  0  0  0  0  0  0  0
   10.5101  -11.1921   19.3430 H   0  0  0  0  0  0  0  0  0  0  0  0
    9.0633  -10.9047   17.3347 H   0  0  0  0  0  0  0  0  0  0  0  0
    7.6641  -12.7826   16.5511 H   0  0  0  0  0  0  0  0  0  0  0  0
    7.7441  -14.9614   17.6675 H   0  0  0  0  0  0  0  0  0  0  0  0
  1  2  1  0
  2  3  1  0
  3  4  1  0
  4  5  1  0
  5  6  2  0
  5  7  1  0
  7  8  1  0
  8  9  1  0
  9 10  2  0
 10 11  1  0
 11 12  1  0
 12 13  1  0
  3 14  1  0
 14 15  2  0
 15 16  1  0
 16 17  2  0
 17 18  1  0
 18 19  2  0
 12  8  2  0
 19 14  1  0
  1 20  1  0
  1 21  1  0
  1 22  1  0
  2 23  1  0
  2 24  1  0
  3 25  1  0
  4 26  1  0
  7 27  1  0
  7 28  1  0
 10 29  1  0
 11 30  1  0
 13 31  1  0
 13 32  1  0
 13 33  1  0
 15 34  1  0
 16 35  1  0
 17 36  1  0
 18 37  1  0
 19 38  1  0
M  END
>  <Energy>  (1061) 
477.26362042925047

>  <compound_id>  (1061) 
54776

>  <target_id>  (1061) 
1

>  <reference_id>  (1061) 
101

>  <inspiration_ids>  (1061) 
[101, 20]

>  <energy_score>  (1061) 
423.5881442656374

>  <distance_score>  (1061) 
15.020893747802072

>  <path>  (1061) 
/opt/xchem-fragalysis-2/maxwin/BulkDock/SCRATCH/511024/C54776-P101/C54776-P101.minimised.mol

>  <scratch_subdir>  (1061) 
/opt/xchem-fragalysis-2/maxwin/BulkDock/SCRATCH/511024/C54776-P101

>  <fragmenstein_runtime>  (1061) 
21.601345777511597

>  <fragmenstein_outcome>  (1061) 
too moved

>  <fragmenstein_mode>  (1061) 
expansion

>  <fragmenstein_error>  (1061) 


$$$$
C54776-P20
     RDKit          3D

 38 39  0  0  0  0  0  0  0  0999 V2000
    0.4894   -8.5420   22.6800 C   0  0  0  0  0  0  0  0  0  0  0  0
    1.0753   -8.2382   24.0553 C   0  0  0  0  0  0  0  0  0  0  0  0
    2.1261   -9.2431   24.5594 C   0  0  0  0  0  0  0  0  0  0  0  0
    1.5505  -10.6191   24.8475 N   0  0  0  0  0  0  0  0  0  0  0  0
    0.9259  -11.2119   26.1578 C   0  0  0  0  0  0  0  0  0  0  0  0
    0.6864  -10.6807   27.2194 O   0  0  0  0  0  0  0  0  0  0  0  0
    0.6109  -13.0614   25.9929 C   0  0  0  0  0  0  0  0  0  0  0  0
   -1.3719  -13.5473   25.5187 C   0  0  0  0  0  0  0  0  0  0  0  0
   -2.5673  -12.3858   25.5162 N   0  0  0  0  0  0  0  0  0  0  0  0
   -3.7941  -12.8753   25.5494 C   0  0  0  0  0  0  0  0  0  0  0  0
   -3.7575  -14.2300   25.4302 N   0  0  0  0  0  0  0  0  0  0  0  0
   -2.4996  -14.6423   25.8843 C   0  0  0  0  0  0  0  0  0  0  0  0
   -2.7251  -15.5398   27.0944 C   0  0  0  0  0  0  0  0  0  0  0  0
    3.3488   -9.1444   23.5834 C   0  0  0  0  0  0  0  0  0  0  0  0
    4.2085   -8.0152   23.6441 C   0  0  0  0  0  0  0  0  0  0  0  0
    5.2081   -7.7797   22.6827 C   0  0  0  0  0  0  0  0  0  0  0  0
    5.3819   -8.6750   21.6347 C   0  0  0  0  0  0  0  0  0  0  0  0
    4.5596   -9.8012   21.5617 C   0  0  0  0  0  0  0  0  0  0  0  0
    3.5572  -10.0326   22.5197 C   0  0  0  0  0  0  0  0  0  0  0  0
    1.2209   -8.3703   21.8849 H   0  0  0  0  0  0  0  0  0  0  0  0
    0.1370   -9.5734   22.6058 H   0  0  0  0  0  0  0  0  0  0  0  0
   -0.3616   -7.8811   22.4850 H   0  0  0  0  0  0  0  0  0  0  0  0
    1.4848   -7.2205   24.0435 H   0  0  0  0  0  0  0  0  0  0  0  0
    0.2460   -8.2238   24.7745 H   0  0  0  0  0  0  0  0  0  0  0  0
    2.4601   -8.8772   25.5395 H   0  0  0  0  0  0  0  0  0  0  0  0
    1.6872  -11.3650   24.1731 H   0  0  0  0  0  0  0  0  0  0  0  0
    1.3393  -13.3735   25.2546 H   0  0  0  0  0  0  0  0  0  0  0  0
    1.0804  -13.5877   26.8771 H   0  0  0  0  0  0  0  0  0  0  0  0
   -4.7077  -12.3006   25.6063 H   0  0  0  0  0  0  0  0  0  0  0  0
   -4.5880  -14.7869   25.5396 H   0  0  0  0  0  0  0  0  0  0  0  0
   -3.6762  -15.3114   27.5935 H   0  0  0  0  0  0  0  0  0  0  0  0
   -2.7393  -16.6036   26.8558 H   0  0  0  0  0  0  0  0  0  0  0  0
   -1.9427  -15.2621   27.8000 H   0  0  0  0  0  0  0  0  0  0  0  0
    4.0735   -7.2832   24.4396 H   0  0  0  0  0  0  0  0  0  0  0  0
    5.8327   -6.8946   22.7553 H   0  0  0  0  0  0  0  0  0  0  0  0
    6.1466   -8.5039   20.8817 H   0  0  0  0  0  0  0  0  0  0  0  0
    4.6854  -10.5082   20.7432 H   0  0  0  0  0  0  0  0  0  0  0  0
    2.9223  -10.9065   22.3914 H   0  0  0  0  0  0  0  0  0  0  0  0
  1  2  1  0
  2  3  1  0
  3  4  1  0
  4  5  1  0
  5  6  2  0
  5  7  1  0
  7  8  1  0
  8  9  1  0
  9 10  2  0
 10 11  1  0
 11 12  1  0
 12 13  1  0
  3 14  1  0
 14 15  2  0
 15 16  1  0
 16 17  2  0
 17 18  1  0
 18 19  2  0
 12  8  2  0
 19 14  1  0
  1 20  1  0
  1 21  1  0
  1 22  1  0
  2 23  1  0
  2 24  1  0
  3 25  1  0
  4 26  1  0
  7 27  1  0
  7 28  1  0
 10 29  1  0
 11 30  1  0
 13 31  1  0
 13 32  1  0
 13 33  1  0
 15 34  1  0
 16 35  1  0
 17 36  1  0
 18 37  1  0
 19 38  1  0
M  END
>  <Energy>  (1062) 
247.46835678617299

>  <compound_id>  (1062) 
54776

>  <target_id>  (1062) 
1

>  <reference_id>  (1062) 
20

>  <inspiration_ids>  (1062) 
[101, 20]

>  <energy_score>  (1062) 
193.79288062257967

>  <distance_score>  (1062) 
14.16346984538149

>  <path>  (1062) 
/opt/xchem-fragalysis-2/maxwin/BulkDock/SCRATCH/511024/C54776-P20/C54776-P20.minimised.mol

>  <scratch_subdir>  (1062) 
/opt/xchem-fragalysis-2/maxwin/BulkDock/SCRATCH/511024/C54776-P20

>  <fragmenstein_runtime>  (1062) 
25.68481206893921

>  <fragmenstein_outcome>  (1062) 
too moved

>  <fragmenstein_mode>  (1062) 
expansion

>  <fragmenstein_error>  (1062) 


$$$$
C54778-P101
     RDKit          3D

 48 49  0  0  0  0  0  0  0  0999 V2000
   -5.2667  -21.2198   20.4325 C   0  0  0  0  0  0  0  0  0  0  0  0
   -3.7882  -20.7338   20.7053 C   0  0  0  0  0  0  0  0  0  0  0  0
   -3.0833  -20.7961   22.4272 N   0  0  0  0  0  0  0  0  0  0  0  0
   -4.0163  -20.8890   23.9677 C   0  0  0  0  0  0  0  0  0  0  0  0
   -3.7831  -19.9384   24.7299 C   0  0  0  0  0  0  0  0  0  0  0  0
   -2.3112  -20.3893   24.0299 N   0  0  0  0  0  0  0  0  0  0  0  0
   -1.9041  -19.9839   22.7658 C   0  0  0  0  0  0  0  0  0  0  0  0
   -1.3375  -18.4502   21.5193 C   0  0  0  0  0  0  0  0  0  0  0  0
   -1.9535  -17.4044   19.9975 C   0  0  0  0  0  0  0  0  0  0  0  0
   -2.1731  -18.1859   18.8147 O   0  0  0  0  0  0  0  0  0  0  0  0
   -1.7074  -15.6743   19.3100 C   0  0  0  0  0  0  0  0  0  0  0  0
   -2.2795  -15.0744   20.4681 N   0  0  0  0  0  0  0  0  0  0  0  0
   -1.7987  -14.3311   17.8504 C   0  0  0  0  0  0  0  0  0  0  0  0
   -0.9370  -13.0427   17.1022 N   0  0  0  0  0  0  0  0  0  0  0  0
   -1.8763  -11.8699   17.2244 C   0  0  0  0  0  0  0  0  0  0  0  0
   -0.6340  -13.1718   15.5928 C   0  0  0  0  0  0  0  0  0  0  0  0
    0.3370  -12.1733   14.8335 C   0  0  0  0  0  0  0  0  0  0  0  0
    0.1733  -10.7735   14.7231 C   0  0  0  0  0  0  0  0  0  0  0  0
    1.1522   -9.9396   14.1384 C   0  0  0  0  0  0  0  0  0  0  0  0
    2.2836  -10.4909   13.5530 C   0  0  0  0  0  0  0  0  0  0  0  0
    2.4042  -11.8758   13.5167 C   0  0  0  0  0  0  0  0  0  0  0  0
    1.4448  -12.6960   14.1383 C   0  0  0  0  0  0  0  0  0  0  0  0
   -5.9368  -20.3571   20.3333 H   0  0  0  0  0  0  0  0  0  0  0  0
   -5.2997  -21.7388   19.4678 H   0  0  0  0  0  0  0  0  0  0  0  0
   -5.6841  -21.8734   21.2042 H   0  0  0  0  0  0  0  0  0  0  0  0
   -2.9535  -21.2444   20.2714 H   0  0  0  0  0  0  0  0  0  0  0  0
   -3.6624  -19.7749   20.1847 H   0  0  0  0  0  0  0  0  0  0  0  0
   -5.1064  -21.1766   24.0181 H   0  0  0  0  0  0  0  0  0  0  0  0
   -4.3139  -20.1046   25.6917 H   0  0  0  0  0  0  0  0  0  0  0  0
   -1.6346  -19.0985   20.7492 H   0  0  0  0  0  0  0  0  0  0  0  0
   -0.2698  -18.2517   21.5683 H   0  0  0  0  0  0  0  0  0  0  0  0
   -2.9855  -17.2960   20.2796 H   0  0  0  0  0  0  0  0  0  0  0  0
   -1.3216  -18.6436   18.6660 H   0  0  0  0  0  0  0  0  0  0  0  0
   -2.5341  -16.0683   18.7487 H   0  0  0  0  0  0  0  0  0  0  0  0
   -1.8036  -15.4157   21.3065 H   0  0  0  0  0  0  0  0  0  0  0  0
   -3.1599  -15.5596   20.5403 H   0  0  0  0  0  0  0  0  0  0  0  0
   -2.2204  -13.5556   18.4252 H   0  0  0  0  0  0  0  0  0  0  0  0
   -2.4136  -14.6828   17.0113 H   0  0  0  0  0  0  0  0  0  0  0  0
   -1.4628  -10.9461   16.8307 H   0  0  0  0  0  0  0  0  0  0  0  0
   -2.8259  -12.0673   16.7140 H   0  0  0  0  0  0  0  0  0  0  0  0
   -2.0824  -11.6349   18.2762 H   0  0  0  0  0  0  0  0  0  0  0  0
   -0.1953  -14.1605   15.4453 H   0  0  0  0  0  0  0  0  0  0  0  0
   -1.5804  -13.1826   15.0362 H   0  0  0  0  0  0  0  0  0  0  0  0
   -0.7164  -10.2873   15.1116 H   0  0  0  0  0  0  0  0  0  0  0  0
    1.0037   -8.8622   14.1282 H   0  0  0  0  0  0  0  0  0  0  0  0
    3.0347   -9.8563   13.0921 H   0  0  0  0  0  0  0  0  0  0  0  0
    3.2595  -12.3331   13.0240 H   0  0  0  0  0  0  0  0  0  0  0  0
    1.6012  -13.7749   14.1083 H   0  0  0  0  0  0  0  0  0  0  0  0
  1  2  1  0
  2  3  1  0
  3  4  1  0
  4  5  2  0
  5  6  1  0
  6  7  2  0
  7  8  1  0
  8  9  1  0
  9 10  1  0
  9 11  1  0
 11 12  1  0
 11 13  1  0
 13 14  1  0
 14 15  1  0
 14 16  1  0
 16 17  1  0
 17 18  2  0
 18 19  1  0
 19 20  2  0
 20 21  1  0
 21 22  2  0
  7  3  1  0
 22 17  1  0
  1 23  1  0
  1 24  1  0
  1 25  1  0
  2 26  1  0
  2 27  1  0
  4 28  1  0
  5 29  1  0
  8 30  1  0
  8 31  1  0
  9 32  1  0
 10 33  1  0
 11 34  1  0
 12 35  1  0
 12 36  1  0
 13 37  1  0
 13 38  1  0
 15 39  1  0
 15 40  1  0
 15 41  1  0
 16 42  1  0
 16 43  1  0
 18 44  1  0
 19 45  1  0
 20 46  1  0
 21 47  1  0
 22 48  1  0
M  END
>  <Energy>  (1063) 
793.96274406303212

>  <compound_id>  (1063) 
54778

>  <target_id>  (1063) 
1

>  <reference_id>  (1063) 
101

>  <inspiration_ids>  (1063) 
[101, 20]

>  <energy_score>  (1063) 
682.4198306992912

>  <distance_score>  (1063) 
13.973033905485037

>  <path>  (1063) 
/opt/xchem-fragalysis-2/maxwin/BulkDock/SCRATCH/511024/C54778-P101/C54778-P101.minimised.mol

>  <scratch_subdir>  (1063) 
/opt/xchem-fragalysis-2/maxwin/BulkDock/SCRATCH/511024/C54778-P101

>  <fragmenstein_runtime>  (1063) 
33.97029137611389

>  <fragmenstein_outcome>  (1063) 
too moved

>  <fragmenstein_mode>  (1063) 
expansion

>  <fragmenstein_error>  (1063) 


$$$$
C54778-P20
     RDKit          3D

 48 49  0  0  0  0  0  0  0  0999 V2000
   -8.7178  -26.9891   27.4579 C   0  0  0  0  0  0  0  0  0  0  0  0
   -6.9710  -26.9029   26.6323 C   0  0  0  0  0  0  0  0  0  0  0  0
   -6.2916  -25.0521   25.3855 N   0  0  0  0  0  0  0  0  0  0  0  0
   -7.3532  -23.9448   24.8803 C   0  0  0  0  0  0  0  0  0  0  0  0
   -7.1868  -23.2411   26.0948 C   0  0  0  0  0  0  0  0  0  0  0  0
   -5.9095  -23.0358   26.2152 N   0  0  0  0  0  0  0  0  0  0  0  0
   -5.5177  -23.2478   24.8090 C   0  0  0  0  0  0  0  0  0  0  0  0
   -4.3698  -21.2879   24.5202 C   0  0  0  0  0  0  0  0  0  0  0  0
   -2.6250  -20.4237   23.2750 C   0  0  0  0  0  0  0  0  0  0  0  0
   -1.5020  -21.2939   23.5026 O   0  0  0  0  0  0  0  0  0  0  0  0
   -1.4301  -18.8523   22.0423 C   0  0  0  0  0  0  0  0  0  0  0  0
   -2.2463  -18.0007   20.6050 N   0  0  0  0  0  0  0  0  0  0  0  0
    0.0824  -17.5678   21.1086 C   0  0  0  0  0  0  0  0  0  0  0  0
    0.9674  -16.0015   20.1304 N   0  0  0  0  0  0  0  0  0  0  0  0
    1.9019  -15.3578   18.5162 C   0  0  0  0  0  0  0  0  0  0  0  0
    2.4893  -14.7899   20.2365 C   0  0  0  0  0  0  0  0  0  0  0  0
    3.9172  -13.8081   19.0722 C   0  0  0  0  0  0  0  0  0  0  0  0
    4.8156  -14.3835   18.0536 C   0  0  0  0  0  0  0  0  0  0  0  0
    6.0492  -13.8241   17.5840 C   0  0  0  0  0  0  0  0  0  0  0  0
    6.6662  -12.7940   18.2571 C   0  0  0  0  0  0  0  0  0  0  0  0
    6.0908  -12.4222   19.4455 C   0  0  0  0  0  0  0  0  0  0  0  0
    4.8173  -12.9500   19.8263 C   0  0  0  0  0  0  0  0  0  0  0  0
   -9.4506  -26.1669   27.3719 H   0  0  0  0  0  0  0  0  0  0  0  0
   -8.5294  -27.0160   28.5277 H   0  0  0  0  0  0  0  0  0  0  0  0
   -9.1894  -27.8462   26.9652 H   0  0  0  0  0  0  0  0  0  0  0  0
   -7.0345  -28.0351   26.1540 H   0  0  0  0  0  0  0  0  0  0  0  0
   -6.3356  -27.2646   27.6273 H   0  0  0  0  0  0  0  0  0  0  0  0
   -8.1749  -24.2425   24.2542 H   0  0  0  0  0  0  0  0  0  0  0  0
   -7.8392  -22.8588   26.8633 H   0  0  0  0  0  0  0  0  0  0  0  0
   -4.6805  -20.6281   25.3384 H   0  0  0  0  0  0  0  0  0  0  0  0
   -3.4810  -21.6542   24.6804 H   0  0  0  0  0  0  0  0  0  0  0  0
   -2.9961  -20.9500   22.3977 H   0  0  0  0  0  0  0  0  0  0  0  0
   -0.7909  -20.6833   23.7368 H   0  0  0  0  0  0  0  0  0  0  0  0
   -1.4736  -19.3991   21.1495 H   0  0  0  0  0  0  0  0  0  0  0  0
   -2.0330  -17.0012   20.7100 H   0  0  0  0  0  0  0  0  0  0  0  0
   -1.8052  -18.3695   19.7551 H   0  0  0  0  0  0  0  0  0  0  0  0
   -0.3385  -16.6911   21.5537 H   0  0  0  0  0  0  0  0  0  0  0  0
   -0.2512  -17.6713   20.0893 H   0  0  0  0  0  0  0  0  0  0  0  0
    2.3946  -16.1857   17.9215 H   0  0  0  0  0  0  0  0  0  0  0  0
    1.5182  -14.4540   17.9874 H   0  0  0  0  0  0  0  0  0  0  0  0
    2.9569  -15.3034   18.5469 H   0  0  0  0  0  0  0  0  0  0  0  0
    2.7646  -14.5877   21.2763 H   0  0  0  0  0  0  0  0  0  0  0  0
    1.9932  -13.9984   20.1559 H   0  0  0  0  0  0  0  0  0  0  0  0
    4.5461  -15.2721   17.5054 H   0  0  0  0  0  0  0  0  0  0  0  0
    6.5286  -14.2704   16.7153 H   0  0  0  0  0  0  0  0  0  0  0  0
    7.6149  -12.3877   17.9272 H   0  0  0  0  0  0  0  0  0  0  0  0
    6.5968  -11.7241   20.1072 H   0  0  0  0  0  0  0  0  0  0  0  0
    4.4916  -12.7156   20.8282 H   0  0  0  0  0  0  0  0  0  0  0  0
  1  2  1  0
  2  3  1  0
  3  4  1  0
  4  5  2  0
  5  6  1  0
  6  7  2  0
  7  8  1  0
  8  9  1  0
  9 10  1  0
  9 11  1  0
 11 12  1  0
 11 13  1  0
 13 14  1  0
 14 15  1  0
 14 16  1  0
 16 17  1  0
 17 18  2  0
 18 19  1  0
 19 20  2  0
 20 21  1  0
 21 22  2  0
  7  3  1  0
 22 17  1  0
  1 23  1  0
  1 24  1  0
  1 25  1  0
  2 26  1  0
  2 27  1  0
  4 28  1  0
  5 29  1  0
  8 30  1  0
  8 31  1  0
  9 32  1  0
 10 33  1  0
 11 34  1  0
 12 35  1  0
 12 36  1  0
 13 37  1  0
 13 38  1  0
 15 39  1  0
 15 40  1  0
 15 41  1  0
 16 42  1  0
 16 43  1  0
 18 44  1  0
 19 45  1  0
 20 46  1  0
 21 47  1  0
 22 48  1  0
M  END
>  <Energy>  (1064) 
2615.5333446137352

>  <compound_id>  (1064) 
54778

>  <target_id>  (1064) 
1

>  <reference_id>  (1064) 
20

>  <inspiration_ids>  (1064) 
[101, 20]

>  <energy_score>  (1064) 
2503.9904312500466

>  <distance_score>  (1064) 
12.22434182771148

>  <path>  (1064) 
/opt/xchem-fragalysis-2/maxwin/BulkDock/SCRATCH/511024/C54778-P20/C54778-P20.minimised.mol

>  <scratch_subdir>  (1064) 
/opt/xchem-fragalysis-2/maxwin/BulkDock/SCRATCH/511024/C54778-P20

>  <fragmenstein_runtime>  (1064) 
31.840900182724

>  <fragmenstein_outcome>  (1064) 
too moved

>  <fragmenstein_mode>  (1064) 
expansion

>  <fragmenstein_error>  (1064) 


$$$$
C54779-P101
     RDKit          3D

 45 46  0  0  0  0  0  0  0  0999 V2000
    4.8926  -13.3754   18.9185 C   0  0  0  0  0  0  0  0  0  0  0  0
    4.2147  -14.4305   18.1130 N   0  0  0  0  0  0  0  0  0  0  0  0
    5.3053  -15.0618   17.3187 C   0  0  0  0  0  0  0  0  0  0  0  0
    6.4346  -14.0859   16.7827 C   0  0  0  0  0  0  0  0  0  0  0  0
    6.2139  -13.1666   15.7380 C   0  0  0  0  0  0  0  0  0  0  0  0
    7.1968  -12.2387   15.3495 C   0  0  0  0  0  0  0  0  0  0  0  0
    8.4321  -12.2188   15.9905 C   0  0  0  0  0  0  0  0  0  0  0  0
    8.6848  -13.1348   17.0105 C   0  0  0  0  0  0  0  0  0  0  0  0
    7.7003  -14.0537   17.4012 C   0  0  0  0  0  0  0  0  0  0  0  0
    2.8677  -15.2041   18.9468 C   0  0  0  0  0  0  0  0  0  0  0  0
    1.0768  -16.0277   19.0522 C   0  0  0  0  0  0  0  0  0  0  0  0
    1.2357  -14.4476   17.9099 N   0  0  0  0  0  0  0  0  0  0  0  0
   -0.1523  -16.9302   20.4888 C   0  0  0  0  0  0  0  0  0  0  0  0
   -1.4593  -16.3000   19.9070 O   0  0  0  0  0  0  0  0  0  0  0  0
   -1.2690  -18.4481   21.3668 C   0  0  0  0  0  0  0  0  0  0  0  0
   -1.7463  -19.8351   22.8992 C   0  0  0  0  0  0  0  0  0  0  0  0
   -3.1177  -20.4348   23.1397 N   0  0  0  0  0  0  0  0  0  0  0  0
   -3.7997  -19.7599   24.7381 C   0  0  0  0  0  0  0  0  0  0  0  0
   -2.6010  -19.4455   25.4726 C   0  0  0  0  0  0  0  0  0  0  0  0
   -2.8523  -20.6254   24.1171 N   0  0  0  0  0  0  0  0  0  0  0  0
   -4.6717  -21.3519   24.5725 C   0  0  0  0  0  0  0  0  0  0  0  0
    5.8589  -13.6906   19.3209 H   0  0  0  0  0  0  0  0  0  0  0  0
    4.3339  -13.0515   19.7889 H   0  0  0  0  0  0  0  0  0  0  0  0
    5.0640  -12.5008   18.2846 H   0  0  0  0  0  0  0  0  0  0  0  0
    5.8024  -15.8238   17.9287 H   0  0  0  0  0  0  0  0  0  0  0  0
    4.8880  -15.5485   16.4319 H   0  0  0  0  0  0  0  0  0  0  0  0
    5.2577  -13.1664   15.2221 H   0  0  0  0  0  0  0  0  0  0  0  0
    6.9856  -11.5283   14.5537 H   0  0  0  0  0  0  0  0  0  0  0  0
    9.1885  -11.4972   15.6968 H   0  0  0  0  0  0  0  0  0  0  0  0
    9.6470  -13.1287   17.5158 H   0  0  0  0  0  0  0  0  0  0  0  0
    7.9147  -14.7400   18.2179 H   0  0  0  0  0  0  0  0  0  0  0  0
    2.6021  -14.8315   19.9707 H   0  0  0  0  0  0  0  0  0  0  0  0
    2.6974  -14.2148   18.7847 H   0  0  0  0  0  0  0  0  0  0  0  0
    1.2475  -17.0746   18.4653 H   0  0  0  0  0  0  0  0  0  0  0  0
    0.4194  -13.8409   17.8480 H   0  0  0  0  0  0  0  0  0  0  0  0
    1.6879  -14.6279   16.9938 H   0  0  0  0  0  0  0  0  0  0  0  0
    0.0374  -16.3189   21.3465 H   0  0  0  0  0  0  0  0  0  0  0  0
   -1.9465  -16.0138   20.7059 H   0  0  0  0  0  0  0  0  0  0  0  0
   -2.1198  -17.8016   21.2552 H   0  0  0  0  0  0  0  0  0  0  0  0
   -1.7939  -18.8265   20.4561 H   0  0  0  0  0  0  0  0  0  0  0  0
   -4.8696  -19.4898   24.7378 H   0  0  0  0  0  0  0  0  0  0  0  0
   -1.9436  -18.5910   25.4498 H   0  0  0  0  0  0  0  0  0  0  0  0
   -4.8217  -21.1239   25.6585 H   0  0  0  0  0  0  0  0  0  0  0  0
   -5.1592  -22.3663   24.3966 H   0  0  0  0  0  0  0  0  0  0  0  0
   -5.3959  -20.9752   23.8318 H   0  0  0  0  0  0  0  0  0  0  0  0
  1  2  1  0
  2  3  1  0
  3  4  1  0
  4  5  2  0
  5  6  1  0
  6  7  2  0
  7  8  1  0
  8  9  2  0
  2 10  1  0
 10 11  1  0
 11 12  1  0
 11 13  1  0
 13 14  1  0
 13 15  1  0
 15 16  1  0
 16 17  2  0
 17 18  1  0
 18 19  2  0
 19 20  1  0
 20 21  1  0
  9  4  1  0
 20 16  1  0
  1 22  1  0
  1 23  1  0
  1 24  1  0
  3 25  1  0
  3 26  1  0
  5 27  1  0
  6 28  1  0
  7 29  1  0
  8 30  1  0
  9 31  1  0
 10 32  1  0
 10 33  1  0
 11 34  1  0
 12 35  1  0
 12 36  1  0
 13 37  1  0
 14 38  1  0
 15 39  1  0
 15 40  1  0
 18 41  1  0
 19 42  1  0
 21 43  1  0
 21 44  1  0
 21 45  1  0
M  END
>  <Energy>  (1065) 
1508.3909605750384

>  <compound_id>  (1065) 
54779

>  <target_id>  (1065) 
1

>  <reference_id>  (1065) 
101

>  <inspiration_ids>  (1065) 
[101, 20]

>  <energy_score>  (1065) 
1382.955569713476

>  <distance_score>  (1065) 
12.363377506979742

>  <path>  (1065) 
/opt/xchem-fragalysis-2/maxwin/BulkDock/SCRATCH/511024/C54779-P101/C54779-P101.minimised.mol

>  <scratch_subdir>  (1065) 
/opt/xchem-fragalysis-2/maxwin/BulkDock/SCRATCH/511024/C54779-P101

>  <fragmenstein_runtime>  (1065) 
24.825884103775024

>  <fragmenstein_outcome>  (1065) 
too moved

>  <fragmenstein_mode>  (1065) 
expansion

>  <fragmenstein_error>  (1065) 


$$$$
C54779-P20
     RDKit          3D

 45 46  0  0  0  0  0  0  0  0999 V2000
    8.3968  -12.8349   16.9525 C   0  0  0  0  0  0  0  0  0  0  0  0
    7.5494  -11.6150   17.0358 N   0  0  0  0  0  0  0  0  0  0  0  0
    9.0569  -10.1757   16.3822 C   0  0  0  0  0  0  0  0  0  0  0  0
    9.7790   -8.2090   15.5704 C   0  0  0  0  0  0  0  0  0  0  0  0
   10.7799   -6.7266   15.2163 C   0  0  0  0  0  0  0  0  0  0  0  0
   10.9213   -4.8233   15.1054 C   0  0  0  0  0  0  0  0  0  0  0  0
   11.7670   -4.2006   15.8957 C   0  0  0  0  0  0  0  0  0  0  0  0
   11.9635   -5.2998   16.5917 C   0  0  0  0  0  0  0  0  0  0  0  0
   11.0084   -6.8340   16.2779 C   0  0  0  0  0  0  0  0  0  0  0  0
    5.8231  -12.6206   17.8984 C   0  0  0  0  0  0  0  0  0  0  0  0
    4.3136  -14.1801   18.6176 C   0  0  0  0  0  0  0  0  0  0  0  0
    5.5833  -15.1803   18.5521 N   0  0  0  0  0  0  0  0  0  0  0  0
    2.4331  -15.1147   19.6076 C   0  0  0  0  0  0  0  0  0  0  0  0
    2.4628  -14.3910   20.7026 O   0  0  0  0  0  0  0  0  0  0  0  0
    0.8364  -16.5809   20.5699 C   0  0  0  0  0  0  0  0  0  0  0  0
   -0.1444  -18.1572   21.8944 C   0  0  0  0  0  0  0  0  0  0  0  0
   -0.3969  -19.0376   23.5347 N   0  0  0  0  0  0  0  0  0  0  0  0
   -1.7819  -18.8235   25.1137 C   0  0  0  0  0  0  0  0  0  0  0  0
   -2.0953  -20.1899   24.0756 C   0  0  0  0  0  0  0  0  0  0  0  0
   -1.4767  -19.3178   22.6113 N   0  0  0  0  0  0  0  0  0  0  0  0
   -2.2853  -20.9375   22.6482 C   0  0  0  0  0  0  0  0  0  0  0  0
    9.1053  -12.7717   16.1226 H   0  0  0  0  0  0  0  0  0  0  0  0
    7.7843  -13.7221   16.7704 H   0  0  0  0  0  0  0  0  0  0  0  0
    8.9471  -12.9644   17.8880 H   0  0  0  0  0  0  0  0  0  0  0  0
    9.9493  -10.6114   16.8535 H   0  0  0  0  0  0  0  0  0  0  0  0
    9.0475  -10.6332   15.3774 H   0  0  0  0  0  0  0  0  0  0  0  0
   12.1908   -7.1934   15.2805 H   0  0  0  0  0  0  0  0  0  0  0  0
   10.0935   -4.2127   14.7851 H   0  0  0  0  0  0  0  0  0  0  0  0
   12.0420   -3.1860   16.0447 H   0  0  0  0  0  0  0  0  0  0  0  0
   12.6753   -5.2544   17.4054 H   0  0  0  0  0  0  0  0  0  0  0  0
   12.0042   -7.3911   16.7534 H   0  0  0  0  0  0  0  0  0  0  0  0
    6.0717  -12.2208   18.8899 H   0  0  0  0  0  0  0  0  0  0  0  0
    5.1386  -11.9719   17.3446 H   0  0  0  0  0  0  0  0  0  0  0  0
    4.0889  -14.7170   17.6904 H   0  0  0  0  0  0  0  0  0  0  0  0
    6.3306  -14.6935   19.0331 H   0  0  0  0  0  0  0  0  0  0  0  0
    5.3286  -15.9597   19.1512 H   0  0  0  0  0  0  0  0  0  0  0  0
    2.0082  -14.8682   18.6051 H   0  0  0  0  0  0  0  0  0  0  0  0
    3.3248  -13.9607   20.8384 H   0  0  0  0  0  0  0  0  0  0  0  0
   -0.1390  -16.1468   20.5557 H   0  0  0  0  0  0  0  0  0  0  0  0
    0.5521  -17.1932   19.7011 H   0  0  0  0  0  0  0  0  0  0  0  0
   -1.3786  -18.7354   26.1471 H   0  0  0  0  0  0  0  0  0  0  0  0
   -3.1684  -20.4569   24.2480 H   0  0  0  0  0  0  0  0  0  0  0  0
   -1.4808  -21.6586   22.9963 H   0  0  0  0  0  0  0  0  0  0  0  0
   -3.3236  -20.8930   22.8340 H   0  0  0  0  0  0  0  0  0  0  0  0
   -2.7867  -21.0494   21.5601 H   0  0  0  0  0  0  0  0  0  0  0  0
  1  2  1  0
  2  3  1  0
  3  4  1  0
  4  5  2  0
  5  6  1  0
  6  7  2  0
  7  8  1  0
  8  9  2  0
  2 10  1  0
 10 11  1  0
 11 12  1  0
 11 13  1  0
 13 14  1  0
 13 15  1  0
 15 16  1  0
 16 17  2  0
 17 18  1  0
 18 19  2  0
 19 20  1  0
 20 21  1  0
  9  4  1  0
 20 16  1  0
  1 22  1  0
  1 23  1  0
  1 24  1  0
  3 25  1  0
  3 26  1  0
  5 27  1  0
  6 28  1  0
  7 29  1  0
  8 30  1  0
  9 31  1  0
 10 32  1  0
 10 33  1  0
 11 34  1  0
 12 35  1  0
 12 36  1  0
 13 37  1  0
 14 38  1  0
 15 39  1  0
 15 40  1  0
 18 41  1  0
 19 42  1  0
 21 43  1  0
 21 44  1  0
 21 45  1  0
M  END
>  <Energy>  (1066) 
3586.1709393735437

>  <compound_id>  (1066) 
54779

>  <target_id>  (1066) 
1

>  <reference_id>  (1066) 
20

>  <inspiration_ids>  (1066) 
[101, 20]

>  <energy_score>  (1066) 
3460.735548511964

>  <distance_score>  (1066) 
9.686052546295834

>  <path>  (1066) 
/opt/xchem-fragalysis-2/maxwin/BulkDock/SCRATCH/511024/C54779-P20/C54779-P20.minimised.mol

>  <scratch_subdir>  (1066) 
/opt/xchem-fragalysis-2/maxwin/BulkDock/SCRATCH/511024/C54779-P20

>  <fragmenstein_runtime>  (1066) 
22.52982258796692

>  <fragmenstein_outcome>  (1066) 
too moved

>  <fragmenstein_mode>  (1066) 
expansion

>  <fragmenstein_error>  (1066) 


$$$$
C54782-P101
     RDKit          3D

 47 48  0  0  0  0  0  0  0  0999 V2000
    3.0712  -20.6594   33.1611 C   0  0  0  0  0  0  0  0  0  0  0  0
    1.8427  -20.5164   32.4613 O   0  0  0  0  0  0  0  0  0  0  0  0
    1.1600  -19.2888   32.7340 C   0  0  0  0  0  0  0  0  0  0  0  0
    1.8004  -18.0359   32.0817 C   0  0  0  0  0  0  0  0  0  0  0  0
    0.8323  -16.8495   32.1876 C   0  0  0  0  0  0  0  0  0  0  0  0
    2.9808  -17.6639   32.8216 O   0  0  0  0  0  0  0  0  0  0  0  0
    2.2538  -18.2700   30.6248 C   0  0  0  0  0  0  0  0  0  0  0  0
    1.1473  -18.7485   29.6799 C   0  0  0  0  0  0  0  0  0  0  0  0
    1.6935  -18.8950   28.3232 N   0  0  0  0  0  0  0  0  0  0  0  0
    0.6841  -19.3897   27.3726 C   0  0  0  0  0  0  0  0  0  0  0  0
    1.3317  -19.8299   26.0598 C   0  0  0  0  0  0  0  0  0  0  0  0
   -0.4588  -18.4368   27.1246 C   0  0  0  0  0  0  0  0  0  0  0  0
   -1.7384  -18.8583   27.1856 N   0  0  0  0  0  0  0  0  0  0  0  0
   -2.4970  -17.7547   26.9896 C   0  0  0  0  0  0  0  0  0  0  0  0
   -1.6864  -16.6443   26.7832 C   0  0  0  0  0  0  0  0  0  0  0  0
   -0.2952  -17.0029   26.8541 N   0  0  0  0  0  0  0  0  0  0  0  0
    1.0770  -15.9715   26.5000 C   0  0  0  0  0  0  0  0  0  0  0  0
    0.9397  -14.6863   25.8629 C   0  0  0  0  0  0  0  0  0  0  0  0
    1.9322  -14.0917   24.9638 C   0  0  0  0  0  0  0  0  0  0  0  0
    3.1379  -14.6540   24.6885 C   0  0  0  0  0  0  0  0  0  0  0  0
    3.5008  -15.7141   25.4475 C   0  0  0  0  0  0  0  0  0  0  0  0
    2.4774  -16.3615   26.2946 C   0  0  0  0  0  0  0  0  0  0  0  0
    3.4042  -21.6953   33.0499 H   0  0  0  0  0  0  0  0  0  0  0  0
    2.9446  -20.4508   34.2277 H   0  0  0  0  0  0  0  0  0  0  0  0
    3.8421  -20.0146   32.7334 H   0  0  0  0  0  0  0  0  0  0  0  0
    0.1424  -19.4207   32.3490 H   0  0  0  0  0  0  0  0  0  0  0  0
    1.0747  -19.1631   33.8206 H   0  0  0  0  0  0  0  0  0  0  0  0
    0.6151  -16.6173   33.2368 H   0  0  0  0  0  0  0  0  0  0  0  0
   -0.1184  -17.0435   31.6825 H   0  0  0  0  0  0  0  0  0  0  0  0
    1.2770  -15.9448   31.7576 H   0  0  0  0  0  0  0  0  0  0  0  0
    2.7109  -17.4329   33.7266 H   0  0  0  0  0  0  0  0  0  0  0  0
    3.0832  -18.9900   30.6144 H   0  0  0  0  0  0  0  0  0  0  0  0
    2.6902  -17.3380   30.2380 H   0  0  0  0  0  0  0  0  0  0  0  0
    0.3315  -18.0199   29.6787 H   0  0  0  0  0  0  0  0  0  0  0  0
    0.7496  -19.7096   30.0226 H   0  0  0  0  0  0  0  0  0  0  0  0
    2.4569  -19.5709   28.3621 H   0  0  0  0  0  0  0  0  0  0  0  0
    0.2501  -20.3035   27.8036 H   0  0  0  0  0  0  0  0  0  0  0  0
    2.0853  -20.6056   26.2366 H   0  0  0  0  0  0  0  0  0  0  0  0
    0.5825  -20.2476   25.3773 H   0  0  0  0  0  0  0  0  0  0  0  0
    1.8207  -19.0058   25.5384 H   0  0  0  0  0  0  0  0  0  0  0  0
   -3.5780  -17.7918   26.9915 H   0  0  0  0  0  0  0  0  0  0  0  0
   -1.9264  -15.6132   26.5760 H   0  0  0  0  0  0  0  0  0  0  0  0
   -0.0328  -14.2109   25.9492 H   0  0  0  0  0  0  0  0  0  0  0  0
    1.7827  -13.1570   24.4641 H   0  0  0  0  0  0  0  0  0  0  0  0
    3.6371  -14.2843   23.8585 H   0  0  0  0  0  0  0  0  0  0  0  0
    4.4618  -16.2006   25.3234 H   0  0  0  0  0  0  0  0  0  0  0  0
    2.7926  -17.3043   26.7404 H   0  0  0  0  0  0  0  0  0  0  0  0
  1  2  1  0
  2  3  1  0
  3  4  1  0
  4  5  1  0
  4  6  1  0
  4  7  1  0
  7  8  1  0
  8  9  1  0
  9 10  1  0
 10 11  1  0
 10 12  1  0
 12 13  2  0
 13 14  1  0
 14 15  2  0
 15 16  1  0
 16 17  1  0
 17 18  2  0
 18 19  1  0
 19 20  2  0
 20 21  1  0
 21 22  2  0
 16 12  1  0
 22 17  1  0
  1 23  1  0
  1 24  1  0
  1 25  1  0
  3 26  1  0
  3 27  1  0
  5 28  1  0
  5 29  1  0
  5 30  1  0
  6 31  1  0
  7 32  1  0
  7 33  1  0
  8 34  1  0
  8 35  1  0
  9 36  1  0
 10 37  1  0
 11 38  1  0
 11 39  1  0
 11 40  1  0
 14 41  1  0
 15 42  1  0
 18 43  1  0
 19 44  1  0
 20 45  1  0
 21 46  1  0
 22 47  1  0
M  END
>  <Energy>  (1067) 
153.13924782685157

>  <compound_id>  (1067) 
54782

>  <target_id>  (1067) 
1

>  <reference_id>  (1067) 
101

>  <inspiration_ids>  (1067) 
[101, 20]

>  <energy_score>  (1067) 
-2.12764679689235

>  <distance_score>  (1067) 
15.971060074833517

>  <path>  (1067) 
/opt/xchem-fragalysis-2/maxwin/BulkDock/SCRATCH/511024/C54782-P101/C54782-P101.minimised.mol

>  <scratch_subdir>  (1067) 
/opt/xchem-fragalysis-2/maxwin/BulkDock/SCRATCH/511024/C54782-P101

>  <fragmenstein_runtime>  (1067) 
15.474597454071045

>  <fragmenstein_outcome>  (1067) 
too moved

>  <fragmenstein_mode>  (1067) 
expansion

>  <fragmenstein_error>  (1067) 


$$$$
C54782-P20
     RDKit          3D

 47 48  0  0  0  0  0  0  0  0999 V2000
  -15.4122  -25.3902   25.2868 C   0  0  0  0  0  0  0  0  0  0  0  0
  -14.2379  -24.7267   25.7369 O   0  0  0  0  0  0  0  0  0  0  0  0
  -13.1907  -25.6335   26.0572 C   0  0  0  0  0  0  0  0  0  0  0  0
  -12.8030  -25.6071   27.5541 C   0  0  0  0  0  0  0  0  0  0  0  0
  -11.7431  -26.6868   27.7452 C   0  0  0  0  0  0  0  0  0  0  0  0
  -13.9027  -26.1071   28.3394 O   0  0  0  0  0  0  0  0  0  0  0  0
  -12.4079  -24.2159   28.1535 C   0  0  0  0  0  0  0  0  0  0  0  0
  -11.4326  -23.3325   27.3491 C   0  0  0  0  0  0  0  0  0  0  0  0
  -10.3184  -22.6781   28.1075 N   0  0  0  0  0  0  0  0  0  0  0  0
   -8.9236  -23.3305   27.7926 C   0  0  0  0  0  0  0  0  0  0  0  0
   -9.2740  -24.6729   28.8181 C   0  0  0  0  0  0  0  0  0  0  0  0
   -7.1210  -22.7893   27.2103 C   0  0  0  0  0  0  0  0  0  0  0  0
   -6.3976  -21.8318   27.7537 N   0  0  0  0  0  0  0  0  0  0  0  0
   -5.0108  -22.0747   27.6912 C   0  0  0  0  0  0  0  0  0  0  0  0
   -4.7869  -23.2742   27.1178 C   0  0  0  0  0  0  0  0  0  0  0  0
   -5.8009  -23.1844   26.1158 N   0  0  0  0  0  0  0  0  0  0  0  0
   -4.7721  -22.3506   25.0093 C   0  0  0  0  0  0  0  0  0  0  0  0
   -4.2172  -21.0102   25.2132 C   0  0  0  0  0  0  0  0  0  0  0  0
   -3.2598  -20.3792   24.3676 C   0  0  0  0  0  0  0  0  0  0  0  0
   -2.7679  -21.0654   23.2753 C   0  0  0  0  0  0  0  0  0  0  0  0
   -3.2437  -22.3659   23.0555 C   0  0  0  0  0  0  0  0  0  0  0  0
   -4.2153  -23.0064   23.9051 C   0  0  0  0  0  0  0  0  0  0  0  0
  -16.1810  -24.6370   25.0949 H   0  0  0  0  0  0  0  0  0  0  0  0
  -15.2100  -25.9249   24.3533 H   0  0  0  0  0  0  0  0  0  0  0  0
  -15.7833  -26.0847   26.0463 H   0  0  0  0  0  0  0  0  0  0  0  0
  -13.4769  -26.6534   25.7690 H   0  0  0  0  0  0  0  0  0  0  0  0
  -12.3281  -25.3629   25.4413 H   0  0  0  0  0  0  0  0  0  0  0  0
  -10.9064  -26.5697   27.0526 H   0  0  0  0  0  0  0  0  0  0  0  0
  -11.3882  -26.7050   28.7809 H   0  0  0  0  0  0  0  0  0  0  0  0
  -12.1691  -27.6824   27.5649 H   0  0  0  0  0  0  0  0  0  0  0  0
  -14.6622  -25.5111   28.1413 H   0  0  0  0  0  0  0  0  0  0  0  0
  -12.0549  -24.3709   29.1787 H   0  0  0  0  0  0  0  0  0  0  0  0
  -13.3184  -23.6257   28.3020 H   0  0  0  0  0  0  0  0  0  0  0  0
  -12.0117  -22.5149   26.9222 H   0  0  0  0  0  0  0  0  0  0  0  0
  -11.0710  -23.8894   26.4813 H   0  0  0  0  0  0  0  0  0  0  0  0
  -10.3382  -21.6525   28.0437 H   0  0  0  0  0  0  0  0  0  0  0  0
   -9.1785  -23.7727   26.8208 H   0  0  0  0  0  0  0  0  0  0  0  0
   -8.4469  -25.1531   29.3191 H   0  0  0  0  0  0  0  0  0  0  0  0
  -10.0186  -24.4898   29.5985 H   0  0  0  0  0  0  0  0  0  0  0  0
   -9.7033  -25.4451   28.1876 H   0  0  0  0  0  0  0  0  0  0  0  0
   -4.2965  -21.4095   28.1691 H   0  0  0  0  0  0  0  0  0  0  0  0
   -3.8630  -23.8029   26.9179 H   0  0  0  0  0  0  0  0  0  0  0  0
   -4.5661  -20.3932   26.0405 H   0  0  0  0  0  0  0  0  0  0  0  0
   -2.9258  -19.3693   24.5874 H   0  0  0  0  0  0  0  0  0  0  0  0
   -2.0394  -20.6189   22.6071 H   0  0  0  0  0  0  0  0  0  0  0  0
   -2.8668  -22.9275   22.2005 H   0  0  0  0  0  0  0  0  0  0  0  0
   -4.5220  -24.0246   23.6722 H   0  0  0  0  0  0  0  0  0  0  0  0
  1  2  1  0
  2  3  1  0
  3  4  1  0
  4  5  1  0
  4  6  1  0
  4  7  1  0
  7  8  1  0
  8  9  1  0
  9 10  1  0
 10 11  1  0
 10 12  1  0
 12 13  2  0
 13 14  1  0
 14 15  2  0
 15 16  1  0
 16 17  1  0
 17 18  2  0
 18 19  1  0
 19 20  2  0
 20 21  1  0
 21 22  2  0
 16 12  1  0
 22 17  1  0
  1 23  1  0
  1 24  1  0
  1 25  1  0
  3 26  1  0
  3 27  1  0
  5 28  1  0
  5 29  1  0
  5 30  1  0
  6 31  1  0
  7 32  1  0
  7 33  1  0
  8 34  1  0
  8 35  1  0
  9 36  1  0
 10 37  1  0
 11 38  1  0
 11 39  1  0
 11 40  1  0
 14 41  1  0
 15 42  1  0
 18 43  1  0
 19 44  1  0
 20 45  1  0
 21 46  1  0
 22 47  1  0
M  END
>  <Energy>  (1068) 
392.71003988759219

>  <compound_id>  (1068) 
54782

>  <target_id>  (1068) 
1

>  <reference_id>  (1068) 
20

>  <inspiration_ids>  (1068) 
[101, 20]

>  <energy_score>  (1068) 
269.1964263041037

>  <distance_score>  (1068) 
19.259861827898796

>  <path>  (1068) 
/opt/xchem-fragalysis-2/maxwin/BulkDock/SCRATCH/511024/C54782-P20/C54782-P20.minimised.mol

>  <scratch_subdir>  (1068) 
/opt/xchem-fragalysis-2/maxwin/BulkDock/SCRATCH/511024/C54782-P20

>  <fragmenstein_runtime>  (1068) 
18.636270761489868

>  <fragmenstein_outcome>  (1068) 
too moved

>  <fragmenstein_mode>  (1068) 
expansion

>  <fragmenstein_error>  (1068) 


$$$$
C54784-P101
     RDKit          3D

 41 42  0  0  0  0  0  0  0  0999 V2000
   -3.5477  -14.4665   12.2282 C   0  0  0  0  0  0  0  0  0  0  0  0
   -2.6306  -15.3085   13.1054 C   0  0  0  0  0  0  0  0  0  0  0  0
   -3.1873  -15.5455   14.4258 N   0  0  0  0  0  0  0  0  0  0  0  0
   -4.3559  -16.2671   14.6175 C   0  0  0  0  0  0  0  0  0  0  0  0
   -4.8163  -15.8629   15.8349 C   0  0  0  0  0  0  0  0  0  0  0  0
   -3.9247  -14.9733   16.3643 N   0  0  0  0  0  0  0  0  0  0  0  0
   -2.7943  -15.0086   15.6615 C   0  0  0  0  0  0  0  0  0  0  0  0
   -1.3355  -14.2329   16.1033 C   0  0  0  0  0  0  0  0  0  0  0  0
    0.6436  -14.3904   16.3661 N   0  0  0  0  0  0  0  0  0  0  0  0
    1.6282  -14.0187   17.6394 C   0  0  0  0  0  0  0  0  0  0  0  0
    1.1046  -13.5234   18.4628 O   0  0  0  0  0  0  0  0  0  0  0  0
    3.5275  -14.2000   18.1093 C   0  0  0  0  0  0  0  0  0  0  0  0
    4.7985  -13.1688   19.2462 C   0  0  0  0  0  0  0  0  0  0  0  0
    6.2960  -11.5814   19.4767 S   0  0  0  0  0  0  0  0  0  0  0  0
    5.8281  -10.5061   18.7227 O   0  0  0  0  0  0  0  0  0  0  0  0
    6.2280  -11.5904   20.9035 O   0  0  0  0  0  0  0  0  0  0  0  0
    8.3755  -10.7163   18.7249 C   0  0  0  0  0  0  0  0  0  0  0  0
    9.4729  -11.2309   17.9165 C   0  0  0  0  0  0  0  0  0  0  0  0
   10.9263  -11.1085   18.2782 C   0  0  0  0  0  0  0  0  0  0  0  0
   11.4594  -10.1209   19.2601 C   0  0  0  0  0  0  0  0  0  0  0  0
   10.5482   -8.7815   19.6718 C   0  0  0  0  0  0  0  0  0  0  0  0
    8.9207   -9.4411   19.0626 C   0  0  0  0  0  0  0  0  0  0  0  0
   -3.7566  -13.4985   12.6960 H   0  0  0  0  0  0  0  0  0  0  0  0
   -3.0775  -14.2832   11.2570 H   0  0  0  0  0  0  0  0  0  0  0  0
   -4.5049  -14.9669   12.0493 H   0  0  0  0  0  0  0  0  0  0  0  0
   -2.4517  -16.2869   12.6468 H   0  0  0  0  0  0  0  0  0  0  0  0
   -1.6768  -14.7875   13.1871 H   0  0  0  0  0  0  0  0  0  0  0  0
   -4.7743  -16.9010   13.8500 H   0  0  0  0  0  0  0  0  0  0  0  0
   -5.7414  -16.1151   16.3332 H   0  0  0  0  0  0  0  0  0  0  0  0
   -1.6461  -13.6504   16.9908 H   0  0  0  0  0  0  0  0  0  0  0  0
   -1.5549  -13.7850   15.1047 H   0  0  0  0  0  0  0  0  0  0  0  0
    1.2079  -14.7432   15.6598 H   0  0  0  0  0  0  0  0  0  0  0  0
    4.0736  -14.9960   17.5948 H   0  0  0  0  0  0  0  0  0  0  0  0
    3.1385  -14.8831   18.8589 H   0  0  0  0  0  0  0  0  0  0  0  0
    5.5308  -13.9093   19.5112 H   0  0  0  0  0  0  0  0  0  0  0  0
    4.2358  -12.9680   20.1603 H   0  0  0  0  0  0  0  0  0  0  0  0
    9.2905  -11.8034   17.0014 H   0  0  0  0  0  0  0  0  0  0  0  0
   11.6168  -11.8224   17.8243 H   0  0  0  0  0  0  0  0  0  0  0  0
   12.3998  -10.3621   19.7693 H   0  0  0  0  0  0  0  0  0  0  0  0
   10.5963   -8.2045   20.6071 H   0  0  0  0  0  0  0  0  0  0  0  0
    8.2191   -8.7135   19.0064 H   0  0  0  0  0  0  0  0  0  0  0  0
  1  2  1  0
  2  3  1  0
  3  4  1  0
  4  5  2  0
  5  6  1  0
  6  7  2  0
  7  8  1  0
  8  9  1  0
  9 10  1  0
 10 11  2  0
 10 12  1  0
 12 13  1  0
 13 14  1  0
 14 15  2  0
 14 16  2  0
 14 17  1  0
 17 18  2  0
 18 19  1  0
 19 20  2  0
 20 21  1  0
 21 22  2  0
  7  3  1  0
 22 17  1  0
  1 23  1  0
  1 24  1  0
  1 25  1  0
  2 26  1  0
  2 27  1  0
  4 28  1  0
  5 29  1  0
  8 30  1  0
  8 31  1  0
  9 32  1  0
 12 33  1  0
 12 34  1  0
 13 35  1  0
 13 36  1  0
 18 37  1  0
 19 38  1  0
 20 39  1  0
 21 40  1  0
 22 41  1  0
M  END
>  <Energy>  (1069) 
796.54239425565379

>  <compound_id>  (1069) 
54784

>  <target_id>  (1069) 
1

>  <reference_id>  (1069) 
101

>  <inspiration_ids>  (1069) 
[101, 20]

>  <energy_score>  (1069) 
770.7888010413374

>  <distance_score>  (1069) 
13.982750483154774

>  <path>  (1069) 
/opt/xchem-fragalysis-2/maxwin/BulkDock/SCRATCH/511024/C54784-P101/C54784-P101.minimised.mol

>  <scratch_subdir>  (1069) 
/opt/xchem-fragalysis-2/maxwin/BulkDock/SCRATCH/511024/C54784-P101

>  <fragmenstein_runtime>  (1069) 
32.934168338775635

>  <fragmenstein_outcome>  (1069) 
too moved

>  <fragmenstein_mode>  (1069) 
expansion

>  <fragmenstein_error>  (1069) 


$$$$
C54784-P20
     RDKit          3D

 41 42  0  0  0  0  0  0  0  0999 V2000
   -3.2534  -16.4820   27.0005 C   0  0  0  0  0  0  0  0  0  0  0  0
   -3.0678  -16.6445   25.4385 C   0  0  0  0  0  0  0  0  0  0  0  0
   -2.5613  -15.4966   24.4853 N   0  0  0  0  0  0  0  0  0  0  0  0
   -3.0272  -14.4026   25.3763 C   0  0  0  0  0  0  0  0  0  0  0  0
   -1.8400  -13.8272   25.6313 C   0  0  0  0  0  0  0  0  0  0  0  0
   -0.7928  -14.2736   24.3982 N   0  0  0  0  0  0  0  0  0  0  0  0
   -1.1774  -15.0183   23.3601 C   0  0  0  0  0  0  0  0  0  0  0  0
    0.2255  -15.5777   21.8149 C   0  0  0  0  0  0  0  0  0  0  0  0
    2.0511  -14.8356   21.0796 N   0  0  0  0  0  0  0  0  0  0  0  0
    2.6738  -14.4809   19.3821 C   0  0  0  0  0  0  0  0  0  0  0  0
    2.1675  -14.7057   18.2945 O   0  0  0  0  0  0  0  0  0  0  0  0
    4.4663  -13.3699   19.4002 C   0  0  0  0  0  0  0  0  0  0  0  0
    5.7439  -11.8321   19.5136 C   0  0  0  0  0  0  0  0  0  0  0  0
    7.7521  -10.8908   19.3463 S   0  0  0  0  0  0  0  0  0  0  0  0
    8.4239   -9.6645   19.1302 O   0  0  0  0  0  0  0  0  0  0  0  0
    8.0804  -12.0529   20.1787 O   0  0  0  0  0  0  0  0  0  0  0  0
    9.3280  -11.2830   17.8020 C   0  0  0  0  0  0  0  0  0  0  0  0
    9.1879  -10.9338   16.4729 C   0  0  0  0  0  0  0  0  0  0  0  0
   10.2175  -11.1498   15.5439 C   0  0  0  0  0  0  0  0  0  0  0  0
   11.4762  -11.5633   15.9400 C   0  0  0  0  0  0  0  0  0  0  0  0
   11.6914  -11.8329   17.2760 C   0  0  0  0  0  0  0  0  0  0  0  0
   10.6448  -11.6986   18.1997 C   0  0  0  0  0  0  0  0  0  0  0  0
   -3.4101  -17.4770   27.4344 H   0  0  0  0  0  0  0  0  0  0  0  0
   -4.1533  -15.9072   27.2462 H   0  0  0  0  0  0  0  0  0  0  0  0
   -2.4075  -16.0264   27.5185 H   0  0  0  0  0  0  0  0  0  0  0  0
   -2.4402  -17.5189   25.3891 H   0  0  0  0  0  0  0  0  0  0  0  0
   -4.1170  -16.7530   25.1546 H   0  0  0  0  0  0  0  0  0  0  0  0
   -4.0289  -14.3715   25.7823 H   0  0  0  0  0  0  0  0  0  0  0  0
   -1.4689  -13.1111   26.3550 H   0  0  0  0  0  0  0  0  0  0  0  0
    0.0834  -14.5333   22.1627 H   0  0  0  0  0  0  0  0  0  0  0  0
   -0.2726  -16.2491   21.0809 H   0  0  0  0  0  0  0  0  0  0  0  0
    2.6973  -14.4307   21.7816 H   0  0  0  0  0  0  0  0  0  0  0  0
    4.3231  -13.1216   20.4745 H   0  0  0  0  0  0  0  0  0  0  0  0
    5.2397  -14.0843   19.1983 H   0  0  0  0  0  0  0  0  0  0  0  0
    5.6301  -11.1880   18.7207 H   0  0  0  0  0  0  0  0  0  0  0  0
    5.6152  -11.5446   20.5556 H   0  0  0  0  0  0  0  0  0  0  0  0
    8.3146  -10.4760   16.0861 H   0  0  0  0  0  0  0  0  0  0  0  0
   10.0217  -10.9714   14.4951 H   0  0  0  0  0  0  0  0  0  0  0  0
   12.2792  -11.6827   15.2188 H   0  0  0  0  0  0  0  0  0  0  0  0
   12.6689  -12.1766   17.6078 H   0  0  0  0  0  0  0  0  0  0  0  0
   10.9128  -12.0070   19.1995 H   0  0  0  0  0  0  0  0  0  0  0  0
  1  2  1  0
  2  3  1  0
  3  4  1  0
  4  5  2  0
  5  6  1  0
  6  7  2  0
  7  8  1  0
  8  9  1  0
  9 10  1  0
 10 11  2  0
 10 12  1  0
 12 13  1  0
 13 14  1  0
 14 15  2  0
 14 16  2  0
 14 17  1  0
 17 18  2  0
 18 19  1  0
 19 20  2  0
 20 21  1  0
 21 22  2  0
  7  3  1  0
 22 17  1  0
  1 23  1  0
  1 24  1  0
  1 25  1  0
  2 26  1  0
  2 27  1  0
  4 28  1  0
  5 29  1  0
  8 30  1  0
  8 31  1  0
  9 32  1  0
 12 33  1  0
 12 34  1  0
 13 35  1  0
 13 36  1  0
 18 37  1  0
 19 38  1  0
 20 39  1  0
 21 40  1  0
 22 41  1  0
M  END
>  <Energy>  (1070) 
1035.1486137458726

>  <compound_id>  (1070) 
54784

>  <target_id>  (1070) 
1

>  <reference_id>  (1070) 
20

>  <inspiration_ids>  (1070) 
[101, 20]

>  <energy_score>  (1070) 
1009.3950205315524

>  <distance_score>  (1070) 
12.06764849309912

>  <path>  (1070) 
/opt/xchem-fragalysis-2/maxwin/BulkDock/SCRATCH/511024/C54784-P20/C54784-P20.minimised.mol

>  <scratch_subdir>  (1070) 
/opt/xchem-fragalysis-2/maxwin/BulkDock/SCRATCH/511024/C54784-P20

>  <fragmenstein_runtime>  (1070) 
26.944779634475708

>  <fragmenstein_outcome>  (1070) 
too moved

>  <fragmenstein_mode>  (1070) 
expansion

>  <fragmenstein_error>  (1070) 


$$$$
C54785-P101
     RDKit          3D

 44 45  0  0  0  0  0  0  0  0999 V2000
    8.8394   -3.6604   14.8838 C   0  0  0  0  0  0  0  0  0  0  0  0
    8.8686   -4.8989   14.6803 C   0  0  0  0  0  0  0  0  0  0  0  0
    8.4576   -6.8661   14.8506 C   0  0  0  0  0  0  0  0  0  0  0  0
    9.7028   -8.2939   15.3756 C   0  0  0  0  0  0  0  0  0  0  0  0
   11.1292   -6.7875   15.8912 C   0  0  0  0  0  0  0  0  0  0  0  0
   11.7612   -5.0510   16.1869 C   0  0  0  0  0  0  0  0  0  0  0  0
   12.7260   -4.7057   17.1741 C   0  0  0  0  0  0  0  0  0  0  0  0
   13.2983   -3.4204   17.3180 C   0  0  0  0  0  0  0  0  0  0  0  0
   12.9855   -2.3963   16.4460 C   0  0  0  0  0  0  0  0  0  0  0  0
   12.1337   -2.6772   15.4045 C   0  0  0  0  0  0  0  0  0  0  0  0
   11.5824   -3.9668   15.2771 C   0  0  0  0  0  0  0  0  0  0  0  0
    8.9451  -10.0305   16.3219 N   0  0  0  0  0  0  0  0  0  0  0  0
    7.4383  -11.1880   15.9068 C   0  0  0  0  0  0  0  0  0  0  0  0
    6.8149  -11.0018   14.8744 O   0  0  0  0  0  0  0  0  0  0  0  0
    6.4693  -12.6914   17.0592 C   0  0  0  0  0  0  0  0  0  0  0  0
    4.8376  -13.7333   17.9983 C   0  0  0  0  0  0  0  0  0  0  0  0
    2.6169  -14.8627   18.3978 S   0  0  0  0  0  0  0  0  0  0  0  0
    0.8824  -16.1210   19.4937 C   0  0  0  0  0  0  0  0  0  0  0  0
    0.7777  -16.5187   20.7328 N   0  0  0  0  0  0  0  0  0  0  0  0
   -0.1866  -17.4733   20.9539 C   0  0  0  0  0  0  0  0  0  0  0  0
   -1.2336  -17.3604   20.1606 C   0  0  0  0  0  0  0  0  0  0  0  0
   -0.8319  -16.1485   19.7741 N   0  0  0  0  0  0  0  0  0  0  0  0
   -1.9165  -15.4144   19.2958 C   0  0  0  0  0  0  0  0  0  0  0  0
    8.7871   -2.5921   14.8751 H   0  0  0  0  0  0  0  0  0  0  0  0
    7.4955   -6.7993   15.4032 H   0  0  0  0  0  0  0  0  0  0  0  0
    8.2819   -7.2545   13.8698 H   0  0  0  0  0  0  0  0  0  0  0  0
   10.1441   -9.1462   14.8505 H   0  0  0  0  0  0  0  0  0  0  0  0
   12.1321   -7.2445   15.9929 H   0  0  0  0  0  0  0  0  0  0  0  0
   10.9564   -6.4016   14.9365 H   0  0  0  0  0  0  0  0  0  0  0  0
   13.1045   -5.3920   17.9135 H   0  0  0  0  0  0  0  0  0  0  0  0
   14.0019   -3.2420   18.1285 H   0  0  0  0  0  0  0  0  0  0  0  0
   13.4358   -1.4155   16.5519 H   0  0  0  0  0  0  0  0  0  0  0  0
   11.9146   -1.9285   14.6460 H   0  0  0  0  0  0  0  0  0  0  0  0
   11.0735   -4.1088   14.3314 H   0  0  0  0  0  0  0  0  0  0  0  0
    9.3958  -10.3729   17.1613 H   0  0  0  0  0  0  0  0  0  0  0  0
    7.1169  -12.6388   17.9494 H   0  0  0  0  0  0  0  0  0  0  0  0
    6.8120  -13.5506   16.4587 H   0  0  0  0  0  0  0  0  0  0  0  0
    4.7888  -13.1394   18.9165 H   0  0  0  0  0  0  0  0  0  0  0  0
    5.3916  -14.6586   18.2040 H   0  0  0  0  0  0  0  0  0  0  0  0
   -0.1168  -18.2231   21.6930 H   0  0  0  0  0  0  0  0  0  0  0  0
   -2.1884  -17.8427   20.0322 H   0  0  0  0  0  0  0  0  0  0  0  0
   -2.2616  -14.9412   20.2090 H   0  0  0  0  0  0  0  0  0  0  0  0
   -2.6622  -16.1607   19.0106 H   0  0  0  0  0  0  0  0  0  0  0  0
   -1.7061  -14.7350   18.4807 H   0  0  0  0  0  0  0  0  0  0  0  0
  1  2  3  0
  2  3  1  0
  3  4  1  0
  4  5  1  0
  5  6  1  0
  6  7  2  0
  7  8  1  0
  8  9  2  0
  9 10  1  0
 10 11  2  0
  4 12  1  0
 12 13  1  0
 13 14  2  0
 13 15  1  0
 15 16  1  0
 16 17  1  0
 17 18  1  0
 18 19  2  0
 19 20  1  0
 20 21  2  0
 21 22  1  0
 22 23  1  0
 11  6  1  0
 22 18  1  0
  1 24  1  0
  3 25  1  0
  3 26  1  0
  4 27  1  0
  5 28  1  0
  5 29  1  0
  7 30  1  0
  8 31  1  0
  9 32  1  0
 10 33  1  0
 11 34  1  0
 12 35  1  0
 15 36  1  0
 15 37  1  0
 16 38  1  0
 16 39  1  0
 20 40  1  0
 21 41  1  0
 23 42  1  0
 23 43  1  0
 23 44  1  0
M  END
>  <Energy>  (1071) 
1336.7644095517192

>  <compound_id>  (1071) 
54785

>  <target_id>  (1071) 
1

>  <reference_id>  (1071) 
101

>  <inspiration_ids>  (1071) 
[101, 20]

>  <energy_score>  (1071) 
1285.5079375562489

>  <distance_score>  (1071) 
10.916754605536454

>  <path>  (1071) 
/opt/xchem-fragalysis-2/maxwin/BulkDock/SCRATCH/511024/C54785-P101/C54785-P101.minimised.mol

>  <scratch_subdir>  (1071) 
/opt/xchem-fragalysis-2/maxwin/BulkDock/SCRATCH/511024/C54785-P101

>  <fragmenstein_runtime>  (1071) 
31.876323461532593

>  <fragmenstein_outcome>  (1071) 
too moved

>  <fragmenstein_mode>  (1071) 
expansion

>  <fragmenstein_error>  (1071) 


$$$$
C54785-P20
     RDKit          3D

 44 45  0  0  0  0  0  0  0  0999 V2000
   10.9535  -14.9413   26.8470 C   0  0  0  0  0  0  0  0  0  0  0  0
   10.4369  -14.4581   25.8765 C   0  0  0  0  0  0  0  0  0  0  0  0
    9.8071  -13.8731   24.6774 C   0  0  0  0  0  0  0  0  0  0  0  0
    8.6727  -12.8951   25.0460 C   0  0  0  0  0  0  0  0  0  0  0  0
    8.2758  -12.0028   23.8032 C   0  0  0  0  0  0  0  0  0  0  0  0
    9.1677  -10.8761   23.2702 C   0  0  0  0  0  0  0  0  0  0  0  0
    8.8817  -10.3419   21.9953 C   0  0  0  0  0  0  0  0  0  0  0  0
    9.5943   -9.2568   21.4777 C   0  0  0  0  0  0  0  0  0  0  0  0
   10.6064   -8.6712   22.2281 C   0  0  0  0  0  0  0  0  0  0  0  0
   10.9123   -9.1893   23.4859 C   0  0  0  0  0  0  0  0  0  0  0  0
   10.1977  -10.2784   24.0028 C   0  0  0  0  0  0  0  0  0  0  0  0
    7.5283  -13.5832   25.7668 N   0  0  0  0  0  0  0  0  0  0  0  0
    6.9560  -14.9319   25.6044 C   0  0  0  0  0  0  0  0  0  0  0  0
    7.2014  -15.7935   24.8067 O   0  0  0  0  0  0  0  0  0  0  0  0
    5.8971  -15.1973   26.7401 C   0  0  0  0  0  0  0  0  0  0  0  0
    5.2483  -16.6253   26.8366 C   0  0  0  0  0  0  0  0  0  0  0  0
    4.0782  -16.7147   28.2855 S   0  0  0  0  0  0  0  0  0  0  0  0
    2.9432  -18.0560   28.0895 C   0  0  0  0  0  0  0  0  0  0  0  0
    3.1390  -19.1671   27.4120 N   0  0  0  0  0  0  0  0  0  0  0  0
    2.0908  -19.9978   27.7376 C   0  0  0  0  0  0  0  0  0  0  0  0
    1.1830  -19.3613   28.5440 C   0  0  0  0  0  0  0  0  0  0  0  0
    1.7569  -18.1384   28.8021 N   0  0  0  0  0  0  0  0  0  0  0  0
    1.2188  -17.2210   29.7753 C   0  0  0  0  0  0  0  0  0  0  0  0
   11.4135  -15.3824   27.7011 H   0  0  0  0  0  0  0  0  0  0  0  0
    9.4308  -14.6697   24.0266 H   0  0  0  0  0  0  0  0  0  0  0  0
   10.5825  -13.3464   24.1090 H   0  0  0  0  0  0  0  0  0  0  0  0
    9.0476  -12.2081   25.8156 H   0  0  0  0  0  0  0  0  0  0  0  0
    7.3192  -11.5243   24.0501 H   0  0  0  0  0  0  0  0  0  0  0  0
    8.0957  -12.6862   22.9660 H   0  0  0  0  0  0  0  0  0  0  0  0
    8.0776  -10.7687   21.3958 H   0  0  0  0  0  0  0  0  0  0  0  0
    9.3318   -8.8710   20.4983 H   0  0  0  0  0  0  0  0  0  0  0  0
   11.1525   -7.8156   21.8443 H   0  0  0  0  0  0  0  0  0  0  0  0
   11.7076   -8.7388   24.0752 H   0  0  0  0  0  0  0  0  0  0  0  0
   10.4600  -10.6365   24.9947 H   0  0  0  0  0  0  0  0  0  0  0  0
    7.1415  -13.1563   26.6003 H   0  0  0  0  0  0  0  0  0  0  0  0
    6.3974  -14.9796   27.6925 H   0  0  0  0  0  0  0  0  0  0  0  0
    5.0984  -14.4627   26.5974 H   0  0  0  0  0  0  0  0  0  0  0  0
    4.7254  -16.8688   25.9107 H   0  0  0  0  0  0  0  0  0  0  0  0
    6.0303  -17.3772   26.9829 H   0  0  0  0  0  0  0  0  0  0  0  0
    2.0658  -21.0188   27.3875 H   0  0  0  0  0  0  0  0  0  0  0  0
    0.2543  -19.6769   28.9984 H   0  0  0  0  0  0  0  0  0  0  0  0
    1.0276  -17.7733   30.7001 H   0  0  0  0  0  0  0  0  0  0  0  0
    0.2803  -16.8232   29.3842 H   0  0  0  0  0  0  0  0  0  0  0  0
    1.9169  -16.4128   29.9884 H   0  0  0  0  0  0  0  0  0  0  0  0
  1  2  3  0
  2  3  1  0
  3  4  1  0
  4  5  1  0
  5  6  1  0
  6  7  2  0
  7  8  1  0
  8  9  2  0
  9 10  1  0
 10 11  2  0
  4 12  1  0
 12 13  1  0
 13 14  2  0
 13 15  1  0
 15 16  1  0
 16 17  1  0
 17 18  1  0
 18 19  2  0
 19 20  1  0
 20 21  2  0
 21 22  1  0
 22 23  1  0
 11  6  1  0
 22 18  1  0
  1 24  1  0
  3 25  1  0
  3 26  1  0
  4 27  1  0
  5 28  1  0
  5 29  1  0
  7 30  1  0
  8 31  1  0
  9 32  1  0
 10 33  1  0
 11 34  1  0
 12 35  1  0
 15 36  1  0
 15 37  1  0
 16 38  1  0
 16 39  1  0
 20 40  1  0
 21 41  1  0
 23 42  1  0
 23 43  1  0
 23 44  1  0
M  END
>  <Energy>  (1072) 
37.434084338385837

>  <compound_id>  (1072) 
54785

>  <target_id>  (1072) 
1

>  <reference_id>  (1072) 
20

>  <inspiration_ids>  (1072) 
[101, 20]

>  <energy_score>  (1072) 
-13.822387657072568

>  <distance_score>  (1072) 
13.14878535496816

>  <path>  (1072) 
/opt/xchem-fragalysis-2/maxwin/BulkDock/SCRATCH/511024/C54785-P20/C54785-P20.minimised.mol

>  <scratch_subdir>  (1072) 
/opt/xchem-fragalysis-2/maxwin/BulkDock/SCRATCH/511024/C54785-P20

>  <fragmenstein_runtime>  (1072) 
22.55380916595459

>  <fragmenstein_outcome>  (1072) 
too moved

>  <fragmenstein_mode>  (1072) 
expansion

>  <fragmenstein_error>  (1072) 


$$$$
C54787-P101
     RDKit          3D

 44 45  0  0  0  0  0  0  0  0999 V2000
    9.1905  -13.2417   18.6304 C   0  0  0  0  0  0  0  0  0  0  0  0
    9.1133  -12.7162   20.4253 C   0  0  0  0  0  0  0  0  0  0  0  0
   10.4283  -13.9076   20.5286 C   0  0  0  0  0  0  0  0  0  0  0  0
   10.4501  -15.0854   20.1990 O   0  0  0  0  0  0  0  0  0  0  0  0
   11.5454  -13.3440   21.0567 O   0  0  0  0  0  0  0  0  0  0  0  0
    8.3994  -13.6687   21.0317 N   0  0  0  0  0  0  0  0  0  0  0  0
    9.3440  -11.8533   20.3590 C   0  0  0  0  0  0  0  0  0  0  0  0
    9.3200  -10.1653   19.0747 C   0  0  0  0  0  0  0  0  0  0  0  0
    9.5859   -8.2703   19.5193 C   0  0  0  0  0  0  0  0  0  0  0  0
    9.9186   -6.5108   18.4752 C   0  0  0  0  0  0  0  0  0  0  0  0
   10.4631   -6.9434   16.4412 C   0  0  0  0  0  0  0  0  0  0  0  0
    9.9726   -8.8953   15.7729 C   0  0  0  0  0  0  0  0  0  0  0  0
    9.5358  -10.2055   17.1630 C   0  0  0  0  0  0  0  0  0  0  0  0
    8.8501  -14.8807   22.5146 C   0  0  0  0  0  0  0  0  0  0  0  0
    9.8914  -14.7379   23.1391 O   0  0  0  0  0  0  0  0  0  0  0  0
    7.6337  -16.4778   23.4451 C   0  0  0  0  0  0  0  0  0  0  0  0
    5.6295  -16.5985   24.2667 C   0  0  0  0  0  0  0  0  0  0  0  0
    3.8849  -17.6284   24.9635 C   0  0  0  0  0  0  0  0  0  0  0  0
    3.1123  -17.6624   26.3794 C   0  0  0  0  0  0  0  0  0  0  0  0
    2.3256  -18.7194   26.7651 N   0  0  0  0  0  0  0  0  0  0  0  0
    2.3322  -19.5144   25.7539 C   0  0  0  0  0  0  0  0  0  0  0  0
    3.1484  -19.1122   24.7135 N   0  0  0  0  0  0  0  0  0  0  0  0
    3.3622  -20.1727   23.6928 C   0  0  0  0  0  0  0  0  0  0  0  0
    8.9263  -14.3019   18.5391 H   0  0  0  0  0  0  0  0  0  0  0  0
   10.1913  -13.0359   18.2311 H   0  0  0  0  0  0  0  0  0  0  0  0
    8.4428  -12.6671   18.0695 H   0  0  0  0  0  0  0  0  0  0  0  0
    7.9054  -12.7122   20.0168 H   0  0  0  0  0  0  0  0  0  0  0  0
   12.1059  -14.1277   21.2521 H   0  0  0  0  0  0  0  0  0  0  0  0
    8.6518  -11.1024   21.0627 H   0  0  0  0  0  0  0  0  0  0  0  0
   10.3483  -11.5210   20.9557 H   0  0  0  0  0  0  0  0  0  0  0  0
    9.7525   -8.1949   20.6118 H   0  0  0  0  0  0  0  0  0  0  0  0
   10.2746   -5.6296   19.0370 H   0  0  0  0  0  0  0  0  0  0  0  0
   11.2793   -6.3761   15.9369 H   0  0  0  0  0  0  0  0  0  0  0  0
   10.3406   -9.5547   15.0029 H   0  0  0  0  0  0  0  0  0  0  0  0
    9.5304  -11.2221   16.7434 H   0  0  0  0  0  0  0  0  0  0  0  0
    8.2329  -16.6710   24.3659 H   0  0  0  0  0  0  0  0  0  0  0  0
    7.7870  -17.4407   22.9078 H   0  0  0  0  0  0  0  0  0  0  0  0
    6.0183  -16.0487   25.1406 H   0  0  0  0  0  0  0  0  0  0  0  0
    4.9873  -15.7622   23.9223 H   0  0  0  0  0  0  0  0  0  0  0  0
    3.3168  -16.9350   27.1673 H   0  0  0  0  0  0  0  0  0  0  0  0
    1.7854  -20.4474   25.7087 H   0  0  0  0  0  0  0  0  0  0  0  0
    3.6057  -19.7813   22.7068 H   0  0  0  0  0  0  0  0  0  0  0  0
    2.4394  -20.7573   23.5995 H   0  0  0  0  0  0  0  0  0  0  0  0
    4.1419  -20.8426   24.0687 H   0  0  0  0  0  0  0  0  0  0  0  0
  1  2  1  0
  2  3  1  0
  3  4  2  0
  3  5  1  0
  2  6  1  0
  6  7  1  0
  7  8  1  0
  8  9  2  0
  9 10  1  0
 10 11  2  0
 11 12  1  0
 12 13  2  0
  6 14  1  0
 14 15  2  0
 14 16  1  0
 16 17  1  0
 17 18  1  0
 18 19  2  0
 19 20  1  0
 20 21  2  0
 21 22  1  0
 22 23  1  0
 13  8  1  0
 22 18  1  0
  1 24  1  0
  1 25  1  0
  1 26  1  0
  2 27  1  0
  5 28  1  0
  7 29  1  0
  7 30  1  0
  9 31  1  0
 10 32  1  0
 11 33  1  0
 12 34  1  0
 13 35  1  0
 16 36  1  0
 16 37  1  0
 17 38  1  0
 17 39  1  0
 19 40  1  0
 21 41  1  0
 23 42  1  0
 23 43  1  0
 23 44  1  0
M  END
>  <Energy>  (1073) 
2449.1136647386779

>  <compound_id>  (1073) 
54787

>  <target_id>  (1073) 
1

>  <reference_id>  (1073) 
101

>  <inspiration_ids>  (1073) 
[101, 20]

>  <energy_score>  (1073) 
2396.0433817632725

>  <distance_score>  (1073) 
13.533168310058228

>  <path>  (1073) 
/opt/xchem-fragalysis-2/maxwin/BulkDock/SCRATCH/511024/C54787-P101/C54787-P101.minimised.mol

>  <scratch_subdir>  (1073) 
/opt/xchem-fragalysis-2/maxwin/BulkDock/SCRATCH/511024/C54787-P101

>  <fragmenstein_runtime>  (1073) 
32.786261796951294

>  <fragmenstein_outcome>  (1073) 
too moved

>  <fragmenstein_mode>  (1073) 
expansion

>  <fragmenstein_error>  (1073) 


$$$$
C54787-P20
     RDKit          3D

 44 45  0  0  0  0  0  0  0  0999 V2000
    6.3674  -10.8520   23.4665 C   0  0  0  0  0  0  0  0  0  0  0  0
    4.8327  -10.8366   22.3070 C   0  0  0  0  0  0  0  0  0  0  0  0
    5.5713  -11.8049   20.8429 C   0  0  0  0  0  0  0  0  0  0  0  0
    5.1123  -12.7267   20.2101 O   0  0  0  0  0  0  0  0  0  0  0  0
    6.8195  -11.3533   20.5405 O   0  0  0  0  0  0  0  0  0  0  0  0
    2.9894  -11.5566   22.8058 N   0  0  0  0  0  0  0  0  0  0  0  0
    4.3629  -10.4293   22.4706 C   0  0  0  0  0  0  0  0  0  0  0  0
    4.3956   -8.4864   22.2001 C   0  0  0  0  0  0  0  0  0  0  0  0
    5.6049   -7.7716   22.4242 C   0  0  0  0  0  0  0  0  0  0  0  0
    5.6691   -6.3953   22.1714 C   0  0  0  0  0  0  0  0  0  0  0  0
    4.6104   -5.7222   21.5730 C   0  0  0  0  0  0  0  0  0  0  0  0
    3.4302   -6.4051   21.3093 C   0  0  0  0  0  0  0  0  0  0  0  0
    3.2975   -7.7581   21.6514 C   0  0  0  0  0  0  0  0  0  0  0  0
    2.7519  -13.1575   23.7922 C   0  0  0  0  0  0  0  0  0  0  0  0
    3.5362  -13.8432   24.3304 O   0  0  0  0  0  0  0  0  0  0  0  0
    0.8460  -14.0683   23.9313 C   0  0  0  0  0  0  0  0  0  0  0  0
   -1.0199  -14.5614   24.4351 C   0  0  0  0  0  0  0  0  0  0  0  0
   -2.6231  -15.0808   25.3561 C   0  0  0  0  0  0  0  0  0  0  0  0
   -3.1412  -16.3359   25.8288 C   0  0  0  0  0  0  0  0  0  0  0  0
   -4.4797  -16.3899   26.0890 N   0  0  0  0  0  0  0  0  0  0  0  0
   -4.8660  -15.1686   25.9034 C   0  0  0  0  0  0  0  0  0  0  0  0
   -3.8149  -14.3252   25.5932 N   0  0  0  0  0  0  0  0  0  0  0  0
   -4.0682  -12.9071   25.7297 C   0  0  0  0  0  0  0  0  0  0  0  0
    7.2463  -11.0834   22.8571 H   0  0  0  0  0  0  0  0  0  0  0  0
    6.3025  -11.5647   24.2884 H   0  0  0  0  0  0  0  0  0  0  0  0
    6.5449   -9.8713   23.9146 H   0  0  0  0  0  0  0  0  0  0  0  0
    5.4917   -9.9855   21.3760 H   0  0  0  0  0  0  0  0  0  0  0  0
    7.0060  -11.8619   19.7179 H   0  0  0  0  0  0  0  0  0  0  0  0
    4.6874   -9.7343   23.5368 H   0  0  0  0  0  0  0  0  0  0  0  0
    3.3346   -9.8431   22.4287 H   0  0  0  0  0  0  0  0  0  0  0  0
    6.5071   -8.2452   22.7856 H   0  0  0  0  0  0  0  0  0  0  0  0
    6.5637   -5.8331   22.4165 H   0  0  0  0  0  0  0  0  0  0  0  0
    4.6965   -4.6660   21.3311 H   0  0  0  0  0  0  0  0  0  0  0  0
    2.5909   -5.8843   20.8532 H   0  0  0  0  0  0  0  0  0  0  0  0
    2.3414   -8.2429   21.4460 H   0  0  0  0  0  0  0  0  0  0  0  0
    0.1374  -13.9929   23.0243 H   0  0  0  0  0  0  0  0  0  0  0  0
    1.4079  -14.8605   23.4649 H   0  0  0  0  0  0  0  0  0  0  0  0
   -1.2470  -13.6722   25.0336 H   0  0  0  0  0  0  0  0  0  0  0  0
   -1.3668  -14.9332   23.4903 H   0  0  0  0  0  0  0  0  0  0  0  0
   -2.6074  -17.2690   25.9692 H   0  0  0  0  0  0  0  0  0  0  0  0
   -5.8768  -14.8046   26.0386 H   0  0  0  0  0  0  0  0  0  0  0  0
   -4.9512  -12.6398   25.1459 H   0  0  0  0  0  0  0  0  0  0  0  0
   -3.2172  -12.3114   25.4344 H   0  0  0  0  0  0  0  0  0  0  0  0
   -4.2955  -12.7056   26.7824 H   0  0  0  0  0  0  0  0  0  0  0  0
  1  2  1  0
  2  3  1  0
  3  4  2  0
  3  5  1  0
  2  6  1  0
  6  7  1  0
  7  8  1  0
  8  9  2  0
  9 10  1  0
 10 11  2  0
 11 12  1  0
 12 13  2  0
  6 14  1  0
 14 15  2  0
 14 16  1  0
 16 17  1  0
 17 18  1  0
 18 19  2  0
 19 20  1  0
 20 21  2  0
 21 22  1  0
 22 23  1  0
 13  8  1  0
 22 18  1  0
  1 24  1  0
  1 25  1  0
  1 26  1  0
  2 27  1  0
  5 28  1  0
  7 29  1  0
  7 30  1  0
  9 31  1  0
 10 32  1  0
 11 33  1  0
 12 34  1  0
 13 35  1  0
 16 36  1  0
 16 37  1  0
 17 38  1  0
 17 39  1  0
 19 40  1  0
 21 41  1  0
 23 42  1  0
 23 43  1  0
 23 44  1  0
M  END
>  <Energy>  (1074) 
1400.5165374506114

>  <compound_id>  (1074) 
54787

>  <target_id>  (1074) 
1

>  <reference_id>  (1074) 
20

>  <inspiration_ids>  (1074) 
[101, 20]

>  <energy_score>  (1074) 
1347.4462544751882

>  <distance_score>  (1074) 
13.249078190440626

>  <path>  (1074) 
/opt/xchem-fragalysis-2/maxwin/BulkDock/SCRATCH/511024/C54787-P20/C54787-P20.minimised.mol

>  <scratch_subdir>  (1074) 
/opt/xchem-fragalysis-2/maxwin/BulkDock/SCRATCH/511024/C54787-P20

>  <fragmenstein_runtime>  (1074) 
29.40326952934265

>  <fragmenstein_outcome>  (1074) 
too moved

>  <fragmenstein_mode>  (1074) 
expansion

>  <fragmenstein_error>  (1074) 


$$$$
C54788-P101
     RDKit          3D

 44 45  0  0  0  0  0  0  0  0999 V2000
    3.4718  -12.9623   22.9612 C   0  0  0  0  0  0  0  0  0  0  0  0
    3.3052  -14.5944   22.4294 N   0  0  0  0  0  0  0  0  0  0  0  0
    3.7111  -16.3601   23.3245 C   0  0  0  0  0  0  0  0  0  0  0  0
    4.2747  -16.1621   24.3895 O   0  0  0  0  0  0  0  0  0  0  0  0
    3.2057  -18.5411   23.1556 C   0  0  0  0  0  0  0  0  0  0  0  0
    1.7167  -20.1951   22.8309 C   0  0  0  0  0  0  0  0  0  0  0  0
   -0.0160  -21.3424   23.1905 C   0  0  0  0  0  0  0  0  0  0  0  0
   -1.5297  -21.0555   23.2745 C   0  0  0  0  0  0  0  0  0  0  0  0
   -2.5026  -21.9942   23.0575 N   0  0  0  0  0  0  0  0  0  0  0  0
   -1.8141  -22.9570   22.5367 C   0  0  0  0  0  0  0  0  0  0  0  0
   -0.5226  -22.9004   23.0613 N   0  0  0  0  0  0  0  0  0  0  0  0
   -0.4749  -23.9823   24.1021 C   0  0  0  0  0  0  0  0  0  0  0  0
    4.6923  -13.5910   21.0574 C   0  0  0  0  0  0  0  0  0  0  0  0
    5.7528  -11.9947   20.3278 C   0  0  0  0  0  0  0  0  0  0  0  0
    7.4645  -10.9510   20.3231 C   0  0  0  0  0  0  0  0  0  0  0  0
    8.4308  -10.7569   19.3368 C   0  0  0  0  0  0  0  0  0  0  0  0
    9.8225  -10.6866   19.6101 C   0  0  0  0  0  0  0  0  0  0  0  0
   10.2976  -10.1947   20.8007 C   0  0  0  0  0  0  0  0  0  0  0  0
    9.3599   -9.8251   21.7182 C   0  0  0  0  0  0  0  0  0  0  0  0
    8.0215  -10.2139   21.5004 C   0  0  0  0  0  0  0  0  0  0  0  0
    6.6108  -12.9375   21.2994 C   0  0  0  0  0  0  0  0  0  0  0  0
    6.8900  -11.9509   22.0750 O   0  0  0  0  0  0  0  0  0  0  0  0
    7.7706  -13.4858   20.8262 O   0  0  0  0  0  0  0  0  0  0  0  0
    3.8313  -12.1595   22.3384 H   0  0  0  0  0  0  0  0  0  0  0  0
    3.5723  -13.1659   24.0226 H   0  0  0  0  0  0  0  0  0  0  0  0
    2.5355  -12.4727   23.2389 H   0  0  0  0  0  0  0  0  0  0  0  0
    3.1180  -18.7423   24.2726 H   0  0  0  0  0  0  0  0  0  0  0  0
    3.9430  -19.1361   22.5967 H   0  0  0  0  0  0  0  0  0  0  0  0
    0.9885  -19.8011   23.6947 H   0  0  0  0  0  0  0  0  0  0  0  0
    1.5934  -20.0612   21.7359 H   0  0  0  0  0  0  0  0  0  0  0  0
   -1.8328  -20.0449   23.2488 H   0  0  0  0  0  0  0  0  0  0  0  0
   -2.1985  -23.8385   22.0392 H   0  0  0  0  0  0  0  0  0  0  0  0
    0.0696  -24.8245   23.6611 H   0  0  0  0  0  0  0  0  0  0  0  0
   -1.4906  -24.3168   24.3469 H   0  0  0  0  0  0  0  0  0  0  0  0
   -0.0281  -23.6420   25.0273 H   0  0  0  0  0  0  0  0  0  0  0  0
    3.9281  -13.1213   20.4515 H   0  0  0  0  0  0  0  0  0  0  0  0
    5.5723  -12.0582   19.2587 H   0  0  0  0  0  0  0  0  0  0  0  0
    5.1643  -11.3680   20.9768 H   0  0  0  0  0  0  0  0  0  0  0  0
    8.2364  -10.6360   18.2790 H   0  0  0  0  0  0  0  0  0  0  0  0
   10.5261  -10.8911   18.8048 H   0  0  0  0  0  0  0  0  0  0  0  0
   11.3547  -10.0435   20.9780 H   0  0  0  0  0  0  0  0  0  0  0  0
    9.6460   -9.3591   22.6559 H   0  0  0  0  0  0  0  0  0  0  0  0
    7.4319  -10.0412   22.4065 H   0  0  0  0  0  0  0  0  0  0  0  0
    8.4594  -12.8160   21.0713 H   0  0  0  0  0  0  0  0  0  0  0  0
  1  2  1  0
  2  3  1  0
  3  4  2  0
  3  5  1  0
  5  6  1  0
  6  7  1  0
  7  8  2  0
  8  9  1  0
  9 10  2  0
 10 11  1  0
 11 12  1  0
  2 13  1  0
 13 14  1  0
 14 15  1  0
 15 16  2  0
 16 17  1  0
 17 18  2  0
 18 19  1  0
 19 20  2  0
 13 21  1  0
 21 22  2  0
 21 23  1  0
 11  7  1  0
 20 15  1  0
  1 24  1  0
  1 25  1  0
  1 26  1  0
  5 27  1  0
  5 28  1  0
  6 29  1  0
  6 30  1  0
  8 31  1  0
 10 32  1  0
 12 33  1  0
 12 34  1  0
 12 35  1  0
 13 36  1  0
 14 37  1  0
 14 38  1  0
 16 39  1  0
 17 40  1  0
 18 41  1  0
 19 42  1  0
 20 43  1  0
 23 44  1  0
M  END
>  <Energy>  (1075) 
1597.5718202177945

>  <compound_id>  (1075) 
54788

>  <target_id>  (1075) 
1

>  <reference_id>  (1075) 
101

>  <inspiration_ids>  (1075) 
[101, 20]

>  <energy_score>  (1075) 
1519.2275912173693

>  <distance_score>  (1075) 
12.291575059250029

>  <path>  (1075) 
/opt/xchem-fragalysis-2/maxwin/BulkDock/SCRATCH/511024/C54788-P101/C54788-P101.minimised.mol

>  <scratch_subdir>  (1075) 
/opt/xchem-fragalysis-2/maxwin/BulkDock/SCRATCH/511024/C54788-P101

>  <fragmenstein_runtime>  (1075) 
24.766348838806152

>  <fragmenstein_outcome>  (1075) 
too moved

>  <fragmenstein_mode>  (1075) 
expansion

>  <fragmenstein_error>  (1075) 


$$$$
C54788-P20
     RDKit          3D

 44 45  0  0  0  0  0  0  0  0999 V2000
    3.2670  -14.8760   18.7147 C   0  0  0  0  0  0  0  0  0  0  0  0
    2.5372  -15.1441   20.2665 N   0  0  0  0  0  0  0  0  0  0  0  0
    0.7233  -15.7086   20.5338 C   0  0  0  0  0  0  0  0  0  0  0  0
   -0.1161  -15.8440   19.7113 O   0  0  0  0  0  0  0  0  0  0  0  0
    0.0471  -15.9155   21.9446 C   0  0  0  0  0  0  0  0  0  0  0  0
   -1.2918  -15.0365   23.3064 C   0  0  0  0  0  0  0  0  0  0  0  0
   -3.1035  -15.3833   23.9316 C   0  0  0  0  0  0  0  0  0  0  0  0
   -3.5967  -15.5529   25.2386 C   0  0  0  0  0  0  0  0  0  0  0  0
   -4.9662  -15.7106   25.2685 N   0  0  0  0  0  0  0  0  0  0  0  0
   -5.3585  -15.5472   24.0297 C   0  0  0  0  0  0  0  0  0  0  0  0
   -4.3006  -15.3131   23.1775 N   0  0  0  0  0  0  0  0  0  0  0  0
   -4.4890  -15.1183   21.7561 C   0  0  0  0  0  0  0  0  0  0  0  0
    3.5356  -13.2053   20.3061 C   0  0  0  0  0  0  0  0  0  0  0  0
    5.1400  -11.7090   19.8762 C   0  0  0  0  0  0  0  0  0  0  0  0
    5.3417   -9.8098   18.7862 C   0  0  0  0  0  0  0  0  0  0  0  0
    4.1511   -9.4023   17.6245 C   0  0  0  0  0  0  0  0  0  0  0  0
    3.5916   -8.1807   17.0993 C   0  0  0  0  0  0  0  0  0  0  0  0
    4.0217   -6.9480   17.5498 C   0  0  0  0  0  0  0  0  0  0  0  0
    5.0035   -6.9190   18.5136 C   0  0  0  0  0  0  0  0  0  0  0  0
    5.5550   -8.1525   19.0503 C   0  0  0  0  0  0  0  0  0  0  0  0
    4.3039  -13.1192   19.1381 C   0  0  0  0  0  0  0  0  0  0  0  0
    3.8190  -12.5989   18.1384 O   0  0  0  0  0  0  0  0  0  0  0  0
    5.4926  -13.7423   19.3099 O   0  0  0  0  0  0  0  0  0  0  0  0
    2.5614  -14.2150   18.2237 H   0  0  0  0  0  0  0  0  0  0  0  0
    2.7849  -15.6273   18.0993 H   0  0  0  0  0  0  0  0  0  0  0  0
    4.2507  -15.2490   18.4071 H   0  0  0  0  0  0  0  0  0  0  0  0
   -0.5269  -16.7193   21.4827 H   0  0  0  0  0  0  0  0  0  0  0  0
    0.3612  -14.8985   22.0969 H   0  0  0  0  0  0  0  0  0  0  0  0
   -0.7296  -14.2078   23.7486 H   0  0  0  0  0  0  0  0  0  0  0  0
   -1.1755  -15.4530   24.2884 H   0  0  0  0  0  0  0  0  0  0  0  0
   -3.0466  -15.5620   26.1674 H   0  0  0  0  0  0  0  0  0  0  0  0
   -6.3813  -15.5886   23.6801 H   0  0  0  0  0  0  0  0  0  0  0  0
   -4.8378  -16.0583   21.3236 H   0  0  0  0  0  0  0  0  0  0  0  0
   -3.5681  -14.8017   21.2675 H   0  0  0  0  0  0  0  0  0  0  0  0
   -5.2484  -14.3433   21.6177 H   0  0  0  0  0  0  0  0  0  0  0  0
    3.7196  -13.0877   21.3491 H   0  0  0  0  0  0  0  0  0  0  0  0
    6.1923  -12.0224   19.8227 H   0  0  0  0  0  0  0  0  0  0  0  0
    5.2529  -11.4379   20.9482 H   0  0  0  0  0  0  0  0  0  0  0  0
    3.6213  -10.2638   17.1572 H   0  0  0  0  0  0  0  0  0  0  0  0
    2.8146   -8.2529   16.3430 H   0  0  0  0  0  0  0  0  0  0  0  0
    3.6017   -6.0338   17.1471 H   0  0  0  0  0  0  0  0  0  0  0  0
    5.3854   -5.9756   18.8869 H   0  0  0  0  0  0  0  0  0  0  0  0
    6.4007   -7.8416   19.7083 H   0  0  0  0  0  0  0  0  0  0  0  0
    5.2741  -14.3964   19.9947 H   0  0  0  0  0  0  0  0  0  0  0  0
  1  2  1  0
  2  3  1  0
  3  4  2  0
  3  5  1  0
  5  6  1  0
  6  7  1  0
  7  8  2  0
  8  9  1  0
  9 10  2  0
 10 11  1  0
 11 12  1  0
  2 13  1  0
 13 14  1  0
 14 15  1  0
 15 16  2  0
 16 17  1  0
 17 18  2  0
 18 19  1  0
 19 20  2  0
 13 21  1  0
 21 22  2  0
 21 23  1  0
 11  7  1  0
 20 15  1  0
  1 24  1  0
  1 25  1  0
  1 26  1  0
  5 27  1  0
  5 28  1  0
  6 29  1  0
  6 30  1  0
  8 31  1  0
 10 32  1  0
 12 33  1  0
 12 34  1  0
 12 35  1  0
 13 36  1  0
 14 37  1  0
 14 38  1  0
 16 39  1  0
 17 40  1  0
 18 41  1  0
 19 42  1  0
 20 43  1  0
 23 44  1  0
M  END
>  <Energy>  (1076) 
1289.9588425794179

>  <compound_id>  (1076) 
54788

>  <target_id>  (1076) 
1

>  <reference_id>  (1076) 
20

>  <inspiration_ids>  (1076) 
[101, 20]

>  <energy_score>  (1076) 
1211.6146135789559

>  <distance_score>  (1076) 
12.57949427855775

>  <path>  (1076) 
/opt/xchem-fragalysis-2/maxwin/BulkDock/SCRATCH/511024/C54788-P20/C54788-P20.minimised.mol

>  <scratch_subdir>  (1076) 
/opt/xchem-fragalysis-2/maxwin/BulkDock/SCRATCH/511024/C54788-P20

>  <fragmenstein_runtime>  (1076) 
20.823328495025635

>  <fragmenstein_outcome>  (1076) 
too moved

>  <fragmenstein_mode>  (1076) 
expansion

>  <fragmenstein_error>  (1076) 


$$$$
C13394-P96
     RDKit          3D

 31 32  0  0  0  0  0  0  0  0999 V2000
    7.4255  -16.0091   23.1680 C   0  0  0  0  0  0  0  0  0  0  0  0
    6.5684  -14.7271   22.4189 C   0  0  0  0  0  0  0  0  0  0  0  0
    4.5778  -14.1709   22.7912 C   0  0  0  0  0  0  0  0  0  0  0  0
    3.3323  -15.5758   23.5788 N   0  0  0  0  0  0  0  0  0  0  0  0
    3.0506  -17.1943   23.3238 C   0  0  0  0  0  0  0  0  0  0  0  0
    2.4462  -17.8521   24.3288 C   0  0  0  0  0  0  0  0  0  0  0  0
    2.1672  -16.7886   25.1090 C   0  0  0  0  0  0  0  0  0  0  0  0
    2.8310  -15.6143   24.9317 N   0  0  0  0  0  0  0  0  0  0  0  0
    6.9160  -15.4865   20.9623 C   0  0  0  0  0  0  0  0  0  0  0  0
    6.6953  -16.6628   20.6957 O   0  0  0  0  0  0  0  0  0  0  0  0
    7.3955  -14.7353   19.9583 O   0  0  0  0  0  0  0  0  0  0  0  0
    7.9686  -13.7125   22.5913 N   0  0  0  0  0  0  0  0  0  0  0  0
    8.4452  -13.0898   23.7371 C   0  0  0  0  0  0  0  0  0  0  0  0
    9.2591  -12.0375   23.3430 C   0  0  0  0  0  0  0  0  0  0  0  0
    9.3525  -12.0902   21.9270 C   0  0  0  0  0  0  0  0  0  0  0  0
   10.0477  -11.0504   20.9996 C   0  0  0  0  0  0  0  0  0  0  0  0
   11.4071  -11.0114   21.1312 F   0  0  0  0  0  0  0  0  0  0  0  0
    9.6397   -9.7600   21.2382 F   0  0  0  0  0  0  0  0  0  0  0  0
    9.7936  -11.2768   19.6807 F   0  0  0  0  0  0  0  0  0  0  0  0
    8.7170  -13.2166   21.4943 N   0  0  0  0  0  0  0  0  0  0  0  0
    6.8404  -16.9302   23.2601 H   0  0  0  0  0  0  0  0  0  0  0  0
    8.3246  -16.2734   22.5877 H   0  0  0  0  0  0  0  0  0  0  0  0
    7.8499  -15.7486   24.1493 H   0  0  0  0  0  0  0  0  0  0  0  0
    3.8699  -14.0007   21.9678 H   0  0  0  0  0  0  0  0  0  0  0  0
    4.3596  -13.2264   23.3535 H   0  0  0  0  0  0  0  0  0  0  0  0
    3.3139  -17.6032   22.3469 H   0  0  0  0  0  0  0  0  0  0  0  0
    2.0744  -18.8643   24.3290 H   0  0  0  0  0  0  0  0  0  0  0  0
    1.3603  -16.8331   25.8286 H   0  0  0  0  0  0  0  0  0  0  0  0
    7.6176  -15.3651   19.2411 H   0  0  0  0  0  0  0  0  0  0  0  0
    8.1194  -13.4006   24.7160 H   0  0  0  0  0  0  0  0  0  0  0  0
    9.7094  -11.3059   24.0000 H   0  0  0  0  0  0  0  0  0  0  0  0
  1  2  1  0
  2  3  1  0
  3  4  1  0
  4  5  1  0
  5  6  2  0
  6  7  1  0
  7  8  2  0
  2  9  1  0
  9 10  2  0
  9 11  1  0
  2 12  1  0
 12 13  1  0
 13 14  2  0
 14 15  1  0
 15 16  1  0
 16 17  1  0
 16 18  1  0
 16 19  1  0
 15 20  2  0
  8  4  1  0
 20 12  1  0
  1 21  1  0
  1 22  1  0
  1 23  1  0
  3 24  1  0
  3 25  1  0
  5 26  1  0
  6 27  1  0
  7 28  1  0
 11 29  1  0
 13 30  1  0
 14 31  1  0
M  END
>  <Energy>  (1077) 
387.82187142336829

>  <compound_id>  (1077) 
13394

>  <target_id>  (1077) 
1

>  <reference_id>  (1077) 
96

>  <inspiration_ids>  (1077) 
[96, 71]

>  <energy_score>  (1077) 
303.18998173320165

>  <distance_score>  (1077) 
14.152153063446171

>  <path>  (1077) 
/opt/xchem-fragalysis-2/maxwin/BulkDock/SCRATCH/511024/C13394-P96/C13394-P96.minimised.mol

>  <scratch_subdir>  (1077) 
/opt/xchem-fragalysis-2/maxwin/BulkDock/SCRATCH/511024/C13394-P96

>  <fragmenstein_runtime>  (1077) 
12.473436832427979

>  <fragmenstein_outcome>  (1077) 
too moved

>  <fragmenstein_mode>  (1077) 
expansion

>  <fragmenstein_error>  (1077) 


$$$$
C13394-P71
     RDKit          3D

 31 32  0  0  0  0  0  0  0  0999 V2000
    3.5177  -13.3237   21.0679 C   0  0  0  0  0  0  0  0  0  0  0  0
    2.1770  -14.7354   21.1312 C   0  0  0  0  0  0  0  0  0  0  0  0
    0.2698  -14.9381   22.1515 C   0  0  0  0  0  0  0  0  0  0  0  0
   -1.2714  -14.9447   23.3927 N   0  0  0  0  0  0  0  0  0  0  0  0
   -1.6868  -15.0865   24.8232 C   0  0  0  0  0  0  0  0  0  0  0  0
   -2.7064  -16.0698   25.0618 C   0  0  0  0  0  0  0  0  0  0  0  0
   -3.6289  -15.8620   24.1233 C   0  0  0  0  0  0  0  0  0  0  0  0
   -3.0118  -15.1013   23.2354 N   0  0  0  0  0  0  0  0  0  0  0  0
    2.9536  -14.6616   22.8469 C   0  0  0  0  0  0  0  0  0  0  0  0
    2.8003  -13.7136   23.6470 O   0  0  0  0  0  0  0  0  0  0  0  0
    3.8579  -15.6020   23.3328 O   0  0  0  0  0  0  0  0  0  0  0  0
    2.4745  -15.0562   19.3113 N   0  0  0  0  0  0  0  0  0  0  0  0
    2.7795  -16.1678   18.4564 C   0  0  0  0  0  0  0  0  0  0  0  0
    3.8752  -15.7607   17.6536 C   0  0  0  0  0  0  0  0  0  0  0  0
    3.9668  -14.3480   17.7678 C   0  0  0  0  0  0  0  0  0  0  0  0
    5.0037  -13.2777   17.2575 C   0  0  0  0  0  0  0  0  0  0  0  0
    6.0782  -13.8190   16.6003 F   0  0  0  0  0  0  0  0  0  0  0  0
    5.5817  -12.4973   18.2280 F   0  0  0  0  0  0  0  0  0  0  0  0
    4.4236  -12.4237   16.3657 F   0  0  0  0  0  0  0  0  0  0  0  0
    2.7503  -14.0385   18.2814 N   0  0  0  0  0  0  0  0  0  0  0  0
    3.8259  -12.9287   20.0992 H   0  0  0  0  0  0  0  0  0  0  0  0
    4.5863  -13.5592   21.1125 H   0  0  0  0  0  0  0  0  0  0  0  0
    3.4596  -12.5934   21.8786 H   0  0  0  0  0  0  0  0  0  0  0  0
   -0.1985  -15.8667   21.7099 H   0  0  0  0  0  0  0  0  0  0  0  0
   -0.1117  -13.9567   22.3381 H   0  0  0  0  0  0  0  0  0  0  0  0
   -1.5932  -14.1735   25.4084 H   0  0  0  0  0  0  0  0  0  0  0  0
   -2.8055  -16.8056   25.8600 H   0  0  0  0  0  0  0  0  0  0  0  0
   -4.6302  -16.2332   23.9504 H   0  0  0  0  0  0  0  0  0  0  0  0
    4.1730  -15.1747   24.1610 H   0  0  0  0  0  0  0  0  0  0  0  0
    2.2863  -17.1232   18.5475 H   0  0  0  0  0  0  0  0  0  0  0  0
    4.5022  -16.4113   17.0610 H   0  0  0  0  0  0  0  0  0  0  0  0
  1  2  1  0
  2  3  1  0
  3  4  1  0
  4  5  1  0
  5  6  2  0
  6  7  1  0
  7  8  2  0
  2  9  1  0
  9 10  2  0
  9 11  1  0
  2 12  1  0
 12 13  1  0
 13 14  2  0
 14 15  1  0
 15 16  1  0
 16 17  1  0
 16 18  1  0
 16 19  1  0
 15 20  2  0
  8  4  1  0
 20 12  1  0
  1 21  1  0
  1 22  1  0
  1 23  1  0
  3 24  1  0
  3 25  1  0
  5 26  1  0
  6 27  1  0
  7 28  1  0
 11 29  1  0
 13 30  1  0
 14 31  1  0
M  END
>  <Energy>  (1078) 
763.74346806199412

>  <compound_id>  (1078) 
13394

>  <target_id>  (1078) 
1

>  <reference_id>  (1078) 
71

>  <inspiration_ids>  (1078) 
[96, 71]

>  <energy_score>  (1078) 
679.1115783718385

>  <distance_score>  (1078) 
14.44551514253868

>  <path>  (1078) 
/opt/xchem-fragalysis-2/maxwin/BulkDock/SCRATCH/511024/C13394-P71/C13394-P71.minimised.mol

>  <scratch_subdir>  (1078) 
/opt/xchem-fragalysis-2/maxwin/BulkDock/SCRATCH/511024/C13394-P71

>  <fragmenstein_runtime>  (1078) 
22.009571313858032

>  <fragmenstein_outcome>  (1078) 
too moved

>  <fragmenstein_mode>  (1078) 
expansion

>  <fragmenstein_error>  (1078) 


$$$$
C47989-P115
     RDKit          3D

 44 46  0  0  0  0  0  0  0  0999 V2000
   -2.0964   -9.2134   32.6374 O   0  0  0  0  0  0  0  0  0  0  0  0
   -2.0725   -8.8211   33.7690 C   0  0  0  0  0  0  0  0  0  0  0  0
   -1.7079   -7.3326   34.0161 C   0  0  0  0  0  0  0  0  0  0  0  0
   -1.2511   -6.5748   32.7300 C   0  0  0  0  0  0  0  0  0  0  0  0
   -0.2455   -5.1197   33.0315 S   0  0  0  0  0  0  0  0  0  0  0  0
    1.1079   -5.4032   32.5796 O   0  0  0  0  0  0  0  0  0  0  0  0
   -0.4406   -4.7149   34.4123 O   0  0  0  0  0  0  0  0  0  0  0  0
   -0.8128   -3.7614   31.9940 C   0  0  0  0  0  0  0  0  0  0  0  0
   -1.4739   -2.6828   32.5883 C   0  0  0  0  0  0  0  0  0  0  0  0
   -1.7373   -1.5193   31.8558 C   0  0  0  0  0  0  0  0  0  0  0  0
   -1.3155   -1.3945   30.5323 C   0  0  0  0  0  0  0  0  0  0  0  0
   -0.6122   -2.4580   29.9501 C   0  0  0  0  0  0  0  0  0  0  0  0
   -0.3827   -3.6494   30.6662 C   0  0  0  0  0  0  0  0  0  0  0  0
   -0.0632   -2.4067   28.6934 O   0  0  0  0  0  0  0  0  0  0  0  0
    0.7492   -1.2398   28.5306 C   0  0  0  0  0  0  0  0  0  0  0  0
   -0.0684   -0.0318   28.0997 C   0  0  0  0  0  0  0  0  0  0  0  0
   -1.5142   -0.1125   28.5451 C   0  0  0  0  0  0  0  0  0  0  0  0
   -1.6115   -0.1833   29.9653 O   0  0  0  0  0  0  0  0  0  0  0  0
   -2.2363   -9.5378   35.0272 N   0  0  0  0  0  0  0  0  0  0  0  0
   -2.3769  -10.9726   35.3059 C   0  0  0  0  0  0  0  0  0  0  0  0
   -3.4092  -12.2613   35.3085 C   0  0  0  0  0  0  0  0  0  0  0  0
   -3.4112  -13.4524   34.5186 N   0  0  0  0  0  0  0  0  0  0  0  0
   -4.1983  -14.3959   35.0692 C   0  0  0  0  0  0  0  0  0  0  0  0
   -3.9775  -14.3372   36.3629 C   0  0  0  0  0  0  0  0  0  0  0  0
   -3.7419  -12.9930   36.4179 N   0  0  0  0  0  0  0  0  0  0  0  0
   -2.5107   -6.8311   34.5452 H   0  0  0  0  0  0  0  0  0  0  0  0
   -0.8525   -7.3527   34.7052 H   0  0  0  0  0  0  0  0  0  0  0  0
   -2.0943   -6.2821   32.1243 H   0  0  0  0  0  0  0  0  0  0  0  0
   -0.6479   -7.2288   32.0920 H   0  0  0  0  0  0  0  0  0  0  0  0
   -1.7562   -2.7149   33.6399 H   0  0  0  0  0  0  0  0  0  0  0  0
   -2.2496   -0.6903   32.3382 H   0  0  0  0  0  0  0  0  0  0  0  0
    0.2008   -4.4423   30.2017 H   0  0  0  0  0  0  0  0  0  0  0  0
    1.4989   -1.4647   27.7635 H   0  0  0  0  0  0  0  0  0  0  0  0
    1.3165   -1.0260   29.4475 H   0  0  0  0  0  0  0  0  0  0  0  0
    0.4095    0.8734   28.4925 H   0  0  0  0  0  0  0  0  0  0  0  0
   -0.0521    0.0587   27.0139 H   0  0  0  0  0  0  0  0  0  0  0  0
   -2.0612   -0.9363   28.0686 H   0  0  0  0  0  0  0  0  0  0  0  0
   -2.0240    0.8078   28.2394 H   0  0  0  0  0  0  0  0  0  0  0  0
   -2.2394   -8.8725   35.7892 H   0  0  0  0  0  0  0  0  0  0  0  0
   -1.8175  -11.0260   36.2401 H   0  0  0  0  0  0  0  0  0  0  0  0
   -1.7220  -11.2649   34.4779 H   0  0  0  0  0  0  0  0  0  0  0  0
   -4.8826  -14.9972   34.5072 H   0  0  0  0  0  0  0  0  0  0  0  0
   -4.1416  -14.8235   37.2913 H   0  0  0  0  0  0  0  0  0  0  0  0
   -3.8101  -12.5286   37.2801 H   0  0  0  0  0  0  0  0  0  0  0  0
  1  2  2  0
  2  3  1  0
  3  4  1  0
  4  5  1  0
  5  6  2  0
  5  7  2  0
  5  8  1  0
  8  9  2  0
  9 10  1  0
 10 11  2  0
 11 12  1  0
 12 13  2  0
 12 14  1  0
 14 15  1  0
 15 16  1  0
 16 17  1  0
 17 18  1  0
  2 19  1  0
 19 20  1  0
 20 21  1  0
 21 22  2  0
 22 23  1  0
 23 24  2  0
 24 25  1  0
 13  8  1  0
 25 21  1  0
 18 11  1  0
  3 26  1  0
  3 27  1  0
  4 28  1  0
  4 29  1  0
  9 30  1  0
 10 31  1  0
 13 32  1  0
 15 33  1  0
 15 34  1  0
 16 35  1  0
 16 36  1  0
 17 37  1  0
 17 38  1  0
 19 39  1  0
 20 40  1  0
 20 41  1  0
 23 42  1  0
 24 43  1  0
 25 44  1  0
M  END
>  <Energy>  (1079) 
124.03793882491378

>  <compound_id>  (1079) 
47989

>  <target_id>  (1079) 
1

>  <reference_id>  (1079) 
115

>  <inspiration_ids>  (1079) 
[115, 13]

>  <energy_score>  (1079) 
73.49269024212037

>  <distance_score>  (1079) 
8.784431312098398

>  <path>  (1079) 
/opt/xchem-fragalysis-2/maxwin/BulkDock/SCRATCH/511024/C47989-P115/C47989-P115.minimised.mol

>  <scratch_subdir>  (1079) 
/opt/xchem-fragalysis-2/maxwin/BulkDock/SCRATCH/511024/C47989-P115

>  <fragmenstein_runtime>  (1079) 
25.73086714744568

>  <fragmenstein_outcome>  (1079) 
too moved

>  <fragmenstein_mode>  (1079) 
expansion

>  <fragmenstein_error>  (1079) 


$$$$
C47989-P13
     RDKit          3D

 44 46  0  0  0  0  0  0  0  0999 V2000
   -5.8013  -10.5811   35.6995 O   0  0  0  0  0  0  0  0  0  0  0  0
   -5.5249  -10.4202   34.5106 C   0  0  0  0  0  0  0  0  0  0  0  0
   -4.3288   -8.9990   34.3238 C   0  0  0  0  0  0  0  0  0  0  0  0
   -2.7112   -8.4546   34.0114 C   0  0  0  0  0  0  0  0  0  0  0  0
   -1.6332   -7.8419   32.6603 S   0  0  0  0  0  0  0  0  0  0  0  0
   -2.3028   -8.1277   31.3993 O   0  0  0  0  0  0  0  0  0  0  0  0
   -0.3218   -8.4537   32.8406 O   0  0  0  0  0  0  0  0  0  0  0  0
   -1.1446   -6.1065   32.5496 C   0  0  0  0  0  0  0  0  0  0  0  0
   -1.0549   -5.2301   33.6154 C   0  0  0  0  0  0  0  0  0  0  0  0
   -0.8414   -3.8510   33.3631 C   0  0  0  0  0  0  0  0  0  0  0  0
   -0.6733   -3.3451   32.0648 C   0  0  0  0  0  0  0  0  0  0  0  0
   -0.6194   -4.2479   31.0119 C   0  0  0  0  0  0  0  0  0  0  0  0
   -0.8170   -5.6187   31.2674 C   0  0  0  0  0  0  0  0  0  0  0  0
   -0.6007   -3.9059   29.6900 O   0  0  0  0  0  0  0  0  0  0  0  0
    0.4476   -3.0224   29.3154 C   0  0  0  0  0  0  0  0  0  0  0  0
    0.1270   -1.5854   29.6743 C   0  0  0  0  0  0  0  0  0  0  0  0
    0.2774   -1.3797   31.1689 C   0  0  0  0  0  0  0  0  0  0  0  0
   -0.7675   -1.9869   31.9251 O   0  0  0  0  0  0  0  0  0  0  0  0
   -6.1695  -11.2205   33.1101 N   0  0  0  0  0  0  0  0  0  0  0  0
   -7.4451  -12.6471   32.9570 C   0  0  0  0  0  0  0  0  0  0  0  0
   -9.0665  -13.8292   32.9991 C   0  0  0  0  0  0  0  0  0  0  0  0
   -9.4877  -14.9382   33.6964 N   0  0  0  0  0  0  0  0  0  0  0  0
  -10.6578  -15.6235   33.4942 C   0  0  0  0  0  0  0  0  0  0  0  0
  -11.2049  -14.9439   32.4893 C   0  0  0  0  0  0  0  0  0  0  0  0
  -10.1214  -14.1120   32.1606 N   0  0  0  0  0  0  0  0  0  0  0  0
   -4.4741   -8.4738   35.2750 H   0  0  0  0  0  0  0  0  0  0  0  0
   -4.8846   -8.6756   33.4587 H   0  0  0  0  0  0  0  0  0  0  0  0
   -2.5869   -9.3529   33.4661 H   0  0  0  0  0  0  0  0  0  0  0  0
   -2.1792   -8.3451   34.9584 H   0  0  0  0  0  0  0  0  0  0  0  0
   -1.2264   -5.5622   34.6357 H   0  0  0  0  0  0  0  0  0  0  0  0
   -0.8913   -3.1559   34.2002 H   0  0  0  0  0  0  0  0  0  0  0  0
   -0.7922   -6.3088   30.4242 H   0  0  0  0  0  0  0  0  0  0  0  0
    0.5386   -3.0981   28.2273 H   0  0  0  0  0  0  0  0  0  0  0  0
    1.4085   -3.3539   29.7303 H   0  0  0  0  0  0  0  0  0  0  0  0
    0.8206   -0.9200   29.1490 H   0  0  0  0  0  0  0  0  0  0  0  0
   -0.8963   -1.3426   29.3657 H   0  0  0  0  0  0  0  0  0  0  0  0
    0.2195   -0.3056   31.3788 H   0  0  0  0  0  0  0  0  0  0  0  0
    1.2575   -1.7133   31.5346 H   0  0  0  0  0  0  0  0  0  0  0  0
   -5.6725  -10.9172   32.2853 H   0  0  0  0  0  0  0  0  0  0  0  0
   -6.9479  -13.0733   32.0752 H   0  0  0  0  0  0  0  0  0  0  0  0
   -8.1513  -11.8469   32.7406 H   0  0  0  0  0  0  0  0  0  0  0  0
  -10.9562  -16.4830   34.0778 H   0  0  0  0  0  0  0  0  0  0  0  0
  -12.0648  -15.0859   31.8485 H   0  0  0  0  0  0  0  0  0  0  0  0
   -9.8581  -14.1671   31.2160 H   0  0  0  0  0  0  0  0  0  0  0  0
  1  2  2  0
  2  3  1  0
  3  4  1  0
  4  5  1  0
  5  6  2  0
  5  7  2  0
  5  8  1  0
  8  9  2  0
  9 10  1  0
 10 11  2  0
 11 12  1  0
 12 13  2  0
 12 14  1  0
 14 15  1  0
 15 16  1  0
 16 17  1  0
 17 18  1  0
  2 19  1  0
 19 20  1  0
 20 21  1  0
 21 22  2  0
 22 23  1  0
 23 24  2  0
 24 25  1  0
 13  8  1  0
 25 21  1  0
 18 11  1  0
  3 26  1  0
  3 27  1  0
  4 28  1  0
  4 29  1  0
  9 30  1  0
 10 31  1  0
 13 32  1  0
 15 33  1  0
 15 34  1  0
 16 35  1  0
 16 36  1  0
 17 37  1  0
 17 38  1  0
 19 39  1  0
 20 40  1  0
 20 41  1  0
 23 42  1  0
 24 43  1  0
 25 44  1  0
M  END
>  <Energy>  (1080) 
468.07337149164715

>  <compound_id>  (1080) 
47989

>  <target_id>  (1080) 
1

>  <reference_id>  (1080) 
13

>  <inspiration_ids>  (1080) 
[115, 13]

>  <energy_score>  (1080) 
417.52812290885316

>  <distance_score>  (1080) 
8.723084994183786

>  <path>  (1080) 
/opt/xchem-fragalysis-2/maxwin/BulkDock/SCRATCH/511024/C47989-P13/C47989-P13.minimised.mol

>  <scratch_subdir>  (1080) 
/opt/xchem-fragalysis-2/maxwin/BulkDock/SCRATCH/511024/C47989-P13

>  <fragmenstein_runtime>  (1080) 
18.846538305282593

>  <fragmenstein_outcome>  (1080) 
too moved

>  <fragmenstein_mode>  (1080) 
expansion

>  <fragmenstein_error>  (1080) 


$$$$
C47990-P115
     RDKit          3D

 41 43  0  0  0  0  0  0  0  0999 V2000
   -4.4620  -12.2061   30.4965 O   0  0  0  0  0  0  0  0  0  0  0  0
   -5.3136  -11.7969   31.2634 C   0  0  0  0  0  0  0  0  0  0  0  0
   -4.9555  -10.0796   32.1009 C   0  0  0  0  0  0  0  0  0  0  0  0
   -3.3867   -9.3442   32.0767 C   0  0  0  0  0  0  0  0  0  0  0  0
   -2.4051   -8.6659   33.4454 S   0  0  0  0  0  0  0  0  0  0  0  0
   -1.3656   -9.5881   33.8124 O   0  0  0  0  0  0  0  0  0  0  0  0
   -3.2560   -8.1932   34.5194 O   0  0  0  0  0  0  0  0  0  0  0  0
   -1.4965   -7.1765   32.7651 C   0  0  0  0  0  0  0  0  0  0  0  0
   -1.2822   -6.0831   33.6123 C   0  0  0  0  0  0  0  0  0  0  0  0
   -0.7578   -4.8685   33.1190 C   0  0  0  0  0  0  0  0  0  0  0  0
   -0.4170   -4.7329   31.7783 C   0  0  0  0  0  0  0  0  0  0  0  0
   -0.5570   -5.8364   30.9368 C   0  0  0  0  0  0  0  0  0  0  0  0
   -1.0681   -7.0641   31.4314 C   0  0  0  0  0  0  0  0  0  0  0  0
   -0.2518   -5.7751   29.5974 O   0  0  0  0  0  0  0  0  0  0  0  0
   -0.0625   -4.4327   29.1217 C   0  0  0  0  0  0  0  0  0  0  0  0
    0.7181   -3.5905   30.1108 C   0  0  0  0  0  0  0  0  0  0  0  0
    0.0225   -3.5035   31.3601 O   0  0  0  0  0  0  0  0  0  0  0  0
   -6.6450  -12.5143   31.8104 N   0  0  0  0  0  0  0  0  0  0  0  0
   -7.2855  -14.2864   31.5854 C   0  0  0  0  0  0  0  0  0  0  0  0
   -7.4669  -15.6563   32.9657 C   0  0  0  0  0  0  0  0  0  0  0  0
   -6.5420  -16.5137   33.3987 N   0  0  0  0  0  0  0  0  0  0  0  0
   -7.1938  -17.4321   34.2093 C   0  0  0  0  0  0  0  0  0  0  0  0
   -8.5302  -17.1870   34.2667 C   0  0  0  0  0  0  0  0  0  0  0  0
   -8.7024  -16.1730   33.3693 N   0  0  0  0  0  0  0  0  0  0  0  0
   -5.4249   -9.3135   31.5069 H   0  0  0  0  0  0  0  0  0  0  0  0
   -5.3056  -10.0165   33.1227 H   0  0  0  0  0  0  0  0  0  0  0  0
   -2.6916   -9.9843   31.5336 H   0  0  0  0  0  0  0  0  0  0  0  0
   -3.5528   -8.4235   31.5240 H   0  0  0  0  0  0  0  0  0  0  0  0
   -1.5674   -6.1418   34.6621 H   0  0  0  0  0  0  0  0  0  0  0  0
   -0.6565   -4.0218   33.7951 H   0  0  0  0  0  0  0  0  0  0  0  0
   -1.0768   -7.9176   30.7671 H   0  0  0  0  0  0  0  0  0  0  0  0
   -1.0405   -3.9829   28.9287 H   0  0  0  0  0  0  0  0  0  0  0  0
    0.4704   -4.4887   28.1686 H   0  0  0  0  0  0  0  0  0  0  0  0
    0.8483   -2.5737   29.7275 H   0  0  0  0  0  0  0  0  0  0  0  0
    1.7127   -4.0148   30.2964 H   0  0  0  0  0  0  0  0  0  0  0  0
   -7.1592  -11.8816   32.3381 H   0  0  0  0  0  0  0  0  0  0  0  0
   -7.8284  -14.0154   32.5388 H   0  0  0  0  0  0  0  0  0  0  0  0
   -8.1466  -14.4319   30.9642 H   0  0  0  0  0  0  0  0  0  0  0  0
   -6.6799  -18.2114   34.7523 H   0  0  0  0  0  0  0  0  0  0  0  0
   -9.3367  -17.6476   34.8142 H   0  0  0  0  0  0  0  0  0  0  0  0
   -9.5400  -15.6315   33.2604 H   0  0  0  0  0  0  0  0  0  0  0  0
  1  2  2  0
  2  3  1  0
  3  4  1  0
  4  5  1  0
  5  6  2  0
  5  7  2  0
  5  8  1  0
  8  9  2  0
  9 10  1  0
 10 11  2  0
 11 12  1  0
 12 13  2  0
 12 14  1  0
 14 15  1  0
 15 16  1  0
 16 17  1  0
  2 18  1  0
 18 19  1  0
 19 20  1  0
 20 21  2  0
 21 22  1  0
 22 23  2  0
 23 24  1  0
 13  8  1  0
 24 20  1  0
 17 11  1  0
  3 25  1  0
  3 26  1  0
  4 27  1  0
  4 28  1  0
  9 29  1  0
 10 30  1  0
 13 31  1  0
 15 32  1  0
 15 33  1  0
 16 34  1  0
 16 35  1  0
 18 36  1  0
 19 37  1  0
 19 38  1  0
 22 39  1  0
 23 40  1  0
 24 41  1  0
M  END
>  <Energy>  (1081) 
268.08285843938387

>  <compound_id>  (1081) 
47990

>  <target_id>  (1081) 
1

>  <reference_id>  (1081) 
115

>  <inspiration_ids>  (1081) 
[115, 13]

>  <energy_score>  (1081) 
208.4039702769835

>  <distance_score>  (1081) 
8.892943501157914

>  <path>  (1081) 
/opt/xchem-fragalysis-2/maxwin/BulkDock/SCRATCH/511024/C47990-P115/C47990-P115.minimised.mol

>  <scratch_subdir>  (1081) 
/opt/xchem-fragalysis-2/maxwin/BulkDock/SCRATCH/511024/C47990-P115

>  <fragmenstein_runtime>  (1081) 
35.474857330322266

>  <fragmenstein_outcome>  (1081) 
too moved

>  <fragmenstein_mode>  (1081) 
expansion

>  <fragmenstein_error>  (1081) 


$$$$
C47990-P13
     RDKit          3D

 41 43  0  0  0  0  0  0  0  0999 V2000
   -5.7583  -10.3971   35.7925 O   0  0  0  0  0  0  0  0  0  0  0  0
   -5.3328  -10.3143   34.6479 C   0  0  0  0  0  0  0  0  0  0  0  0
   -3.8503   -9.1267   34.5909 C   0  0  0  0  0  0  0  0  0  0  0  0
   -2.6512   -8.5528   33.3362 C   0  0  0  0  0  0  0  0  0  0  0  0
   -1.2530   -7.5085   33.9382 S   0  0  0  0  0  0  0  0  0  0  0  0
   -0.0099   -8.1935   33.6161 O   0  0  0  0  0  0  0  0  0  0  0  0
   -1.5622   -7.1220   35.3025 O   0  0  0  0  0  0  0  0  0  0  0  0
   -1.0516   -5.9391   33.0152 C   0  0  0  0  0  0  0  0  0  0  0  0
   -0.9674   -4.7360   33.7377 C   0  0  0  0  0  0  0  0  0  0  0  0
   -0.8154   -3.4953   33.0918 C   0  0  0  0  0  0  0  0  0  0  0  0
   -0.6813   -3.4424   31.7144 C   0  0  0  0  0  0  0  0  0  0  0  0
   -0.5976   -4.6433   31.0046 C   0  0  0  0  0  0  0  0  0  0  0  0
   -0.7924   -5.8944   31.6421 C   0  0  0  0  0  0  0  0  0  0  0  0
   -0.3669   -4.6673   29.6538 O   0  0  0  0  0  0  0  0  0  0  0  0
    0.0255   -3.3869   29.1377 C   0  0  0  0  0  0  0  0  0  0  0  0
   -0.8358   -2.2783   29.7137 C   0  0  0  0  0  0  0  0  0  0  0  0
   -0.6357   -2.2011   31.1324 O   0  0  0  0  0  0  0  0  0  0  0  0
   -5.8853  -11.0419   33.2471 N   0  0  0  0  0  0  0  0  0  0  0  0
   -7.3905  -12.1072   32.9337 C   0  0  0  0  0  0  0  0  0  0  0  0
   -8.4235  -13.6789   32.9292 C   0  0  0  0  0  0  0  0  0  0  0  0
   -8.4603  -14.8002   32.2129 N   0  0  0  0  0  0  0  0  0  0  0  0
   -9.4378  -15.6923   32.8884 C   0  0  0  0  0  0  0  0  0  0  0  0
  -10.3199  -15.0205   33.5431 C   0  0  0  0  0  0  0  0  0  0  0  0
   -9.7221  -13.8527   33.2592 N   0  0  0  0  0  0  0  0  0  0  0  0
   -3.2419   -9.5596   35.3950 H   0  0  0  0  0  0  0  0  0  0  0  0
   -4.2067   -8.2325   35.1002 H   0  0  0  0  0  0  0  0  0  0  0  0
   -2.1483   -9.3556   32.8157 H   0  0  0  0  0  0  0  0  0  0  0  0
   -3.0600   -8.1347   32.4099 H   0  0  0  0  0  0  0  0  0  0  0  0
   -1.0720   -4.7410   34.8233 H   0  0  0  0  0  0  0  0  0  0  0  0
   -0.8305   -2.5804   33.6784 H   0  0  0  0  0  0  0  0  0  0  0  0
   -0.7198   -6.8082   31.0612 H   0  0  0  0  0  0  0  0  0  0  0  0
   -0.0853   -3.4193   28.0529 H   0  0  0  0  0  0  0  0  0  0  0  0
    1.0866   -3.2331   29.3690 H   0  0  0  0  0  0  0  0  0  0  0  0
   -1.9011   -2.4494   29.5197 H   0  0  0  0  0  0  0  0  0  0  0  0
   -0.5567   -1.3119   29.2831 H   0  0  0  0  0  0  0  0  0  0  0  0
   -5.3618  -10.6994   32.4584 H   0  0  0  0  0  0  0  0  0  0  0  0
   -6.8386  -12.5336   32.0932 H   0  0  0  0  0  0  0  0  0  0  0  0
   -8.1271  -11.4625   32.4866 H   0  0  0  0  0  0  0  0  0  0  0  0
   -9.2825  -16.7109   33.1894 H   0  0  0  0  0  0  0  0  0  0  0  0
  -11.0801  -15.2850   34.2642 H   0  0  0  0  0  0  0  0  0  0  0  0
   -9.9881  -13.2403   33.9356 H   0  0  0  0  0  0  0  0  0  0  0  0
  1  2  2  0
  2  3  1  0
  3  4  1  0
  4  5  1  0
  5  6  2  0
  5  7  2  0
  5  8  1  0
  8  9  2  0
  9 10  1  0
 10 11  2  0
 11 12  1  0
 12 13  2  0
 12 14  1  0
 14 15  1  0
 15 16  1  0
 16 17  1  0
  2 18  1  0
 18 19  1  0
 19 20  1  0
 20 21  2  0
 21 22  1  0
 22 23  2  0
 23 24  1  0
 13  8  1  0
 24 20  1  0
 17 11  1  0
  3 25  1  0
  3 26  1  0
  4 27  1  0
  4 28  1  0
  9 29  1  0
 10 30  1  0
 13 31  1  0
 15 32  1  0
 15 33  1  0
 16 34  1  0
 16 35  1  0
 18 36  1  0
 19 37  1  0
 19 38  1  0
 22 39  1  0
 23 40  1  0
 24 41  1  0
M  END
>  <Energy>  (1082) 
354.70951119286906

>  <compound_id>  (1082) 
47990

>  <target_id>  (1082) 
1

>  <reference_id>  (1082) 
13

>  <inspiration_ids>  (1082) 
[115, 13]

>  <energy_score>  (1082) 
295.03062303047204

>  <distance_score>  (1082) 
8.83460227668791

>  <path>  (1082) 
/opt/xchem-fragalysis-2/maxwin/BulkDock/SCRATCH/511024/C47990-P13/C47990-P13.minimised.mol

>  <scratch_subdir>  (1082) 
/opt/xchem-fragalysis-2/maxwin/BulkDock/SCRATCH/511024/C47990-P13

>  <fragmenstein_runtime>  (1082) 
21.931772232055664

>  <fragmenstein_outcome>  (1082) 
too moved

>  <fragmenstein_mode>  (1082) 
expansion

>  <fragmenstein_error>  (1082) 


$$$$
C47999-P115
     RDKit          3D

 34 37  0  0  0  0  0  0  0  0999 V2000
   -4.4851  -16.2409   33.1240 C   0  0  0  0  0  0  0  0  0  0  0  0
   -5.8077  -15.6511   31.8674 N   0  0  0  0  0  0  0  0  0  0  0  0
   -6.7398  -16.2647   32.8081 C   0  0  0  0  0  0  0  0  0  0  0  0
   -6.0414  -17.0105   31.6706 C   0  0  0  0  0  0  0  0  0  0  0  0
   -5.6539  -15.8584   30.2192 N   0  0  0  0  0  0  0  0  0  0  0  0
   -5.9151  -14.2772   30.4627 C   0  0  0  0  0  0  0  0  0  0  0  0
   -5.5176  -12.2921   29.3038 C   0  0  0  0  0  0  0  0  0  0  0  0
   -5.6398  -12.0540   27.6195 N   0  0  0  0  0  0  0  0  0  0  0  0
   -6.0837  -10.3126   26.9609 O   0  0  0  0  0  0  0  0  0  0  0  0
   -6.1747   -9.0756   28.1744 C   0  0  0  0  0  0  0  0  0  0  0  0
   -5.2561   -7.4691   27.2996 C   0  0  0  0  0  0  0  0  0  0  0  0
   -5.7520   -5.6045   27.3182 C   0  0  0  0  0  0  0  0  0  0  0  0
   -4.8100   -3.7769   26.8682 C   0  0  0  0  0  0  0  0  0  0  0  0
   -3.1510   -3.9304   25.6557 C   0  0  0  0  0  0  0  0  0  0  0  0
   -2.3169   -5.6843   26.2448 C   0  0  0  0  0  0  0  0  0  0  0  0
   -3.4508   -7.1382   26.8184 N   0  0  0  0  0  0  0  0  0  0  0  0
   -3.0654   -2.3227   26.2987 O   0  0  0  0  0  0  0  0  0  0  0  0
   -2.2162   -1.9692   27.4706 C   0  0  0  0  0  0  0  0  0  0  0  0
   -2.8755   -2.5156   28.7034 C   0  0  0  0  0  0  0  0  0  0  0  0
   -4.4665   -2.8326   28.1946 C   0  0  0  0  0  0  0  0  0  0  0  0
   -6.2518  -10.4149   29.3903 N   0  0  0  0  0  0  0  0  0  0  0  0
   -4.6298  -15.5752   33.9832 H   0  0  0  0  0  0  0  0  0  0  0  0
   -3.5180  -16.3562   32.6138 H   0  0  0  0  0  0  0  0  0  0  0  0
   -4.8097  -17.2582   33.4045 H   0  0  0  0  0  0  0  0  0  0  0  0
   -6.7242  -16.6278   33.8307 H   0  0  0  0  0  0  0  0  0  0  0  0
   -6.5811  -17.9304   31.4550 H   0  0  0  0  0  0  0  0  0  0  0  0
   -6.5793   -5.5140   28.0901 H   0  0  0  0  0  0  0  0  0  0  0  0
   -1.4505   -6.1572   25.7556 H   0  0  0  0  0  0  0  0  0  0  0  0
   -1.1869   -2.3302   27.4193 H   0  0  0  0  0  0  0  0  0  0  0  0
   -2.1986   -0.8745   27.5026 H   0  0  0  0  0  0  0  0  0  0  0  0
   -2.6727   -1.8584   29.5546 H   0  0  0  0  0  0  0  0  0  0  0  0
   -2.2942   -3.3844   29.0235 H   0  0  0  0  0  0  0  0  0  0  0  0
   -4.6084   -1.9209   27.7280 H   0  0  0  0  0  0  0  0  0  0  0  0
   -5.2332   -3.0830   28.9256 H   0  0  0  0  0  0  0  0  0  0  0  0
  1  2  1  0
  2  3  1  0
  3  4  2  0
  4  5  1  0
  5  6  2  0
  6  7  1  0
  7  8  2  0
  8  9  1  0
  9 10  1  0
 10 11  1  0
 11 12  2  0
 12 13  1  0
 13 14  2  0
 14 15  1  0
 15 16  2  0
 14 17  1  0
 17 18  1  0
 18 19  1  0
 19 20  1  0
 10 21  2  0
  6  2  1  0
 21  7  1  0
 16 11  1  0
 20 13  1  0
  1 22  1  0
  1 23  1  0
  1 24  1  0
  3 25  1  0
  4 26  1  0
 12 27  1  0
 15 28  1  0
 18 29  1  0
 18 30  1  0
 19 31  1  0
 19 32  1  0
 20 33  1  0
 20 34  1  0
M  END
>  <Energy>  (1083) 
2258.2870096668885

>  <compound_id>  (1083) 
47999

>  <target_id>  (1083) 
1

>  <reference_id>  (1083) 
115

>  <inspiration_ids>  (1083) 
[115, 13]

>  <energy_score>  (1083) 
2117.592761887774

>  <distance_score>  (1083) 
8.067349643281638

>  <path>  (1083) 
/opt/xchem-fragalysis-2/maxwin/BulkDock/SCRATCH/511024/C47999-P115/C47999-P115.minimised.mol

>  <scratch_subdir>  (1083) 
/opt/xchem-fragalysis-2/maxwin/BulkDock/SCRATCH/511024/C47999-P115

>  <fragmenstein_runtime>  (1083) 
15.511430978775024

>  <fragmenstein_outcome>  (1083) 
too moved

>  <fragmenstein_mode>  (1083) 
expansion

>  <fragmenstein_error>  (1083) 


$$$$
C47999-P13
     RDKit          3D

 34 37  0  0  0  0  0  0  0  0999 V2000
   -5.7595  -16.4203   29.4618 C   0  0  0  0  0  0  0  0  0  0  0  0
   -6.2096  -15.0501   29.3913 N   0  0  0  0  0  0  0  0  0  0  0  0
   -5.8478  -14.7705   30.7778 C   0  0  0  0  0  0  0  0  0  0  0  0
   -6.6456  -13.7726   30.8600 C   0  0  0  0  0  0  0  0  0  0  0  0
   -6.2357  -13.3711   29.6011 N   0  0  0  0  0  0  0  0  0  0  0  0
   -6.9592  -13.7635   28.4267 C   0  0  0  0  0  0  0  0  0  0  0  0
   -6.4949  -12.3183   26.8427 C   0  0  0  0  0  0  0  0  0  0  0  0
   -7.1600  -11.5181   25.6864 N   0  0  0  0  0  0  0  0  0  0  0  0
   -7.4081   -9.7028   25.9592 O   0  0  0  0  0  0  0  0  0  0  0  0
   -6.3559   -9.0314   27.2321 C   0  0  0  0  0  0  0  0  0  0  0  0
   -5.0926   -7.4185   27.1071 C   0  0  0  0  0  0  0  0  0  0  0  0
   -3.1832   -6.9157   26.7456 C   0  0  0  0  0  0  0  0  0  0  0  0
   -2.2886   -5.1358   26.2650 C   0  0  0  0  0  0  0  0  0  0  0  0
   -3.5740   -3.5468   26.0154 C   0  0  0  0  0  0  0  0  0  0  0  0
   -5.1234   -3.9167   27.2782 C   0  0  0  0  0  0  0  0  0  0  0  0
   -5.8667   -5.7018   27.3419 N   0  0  0  0  0  0  0  0  0  0  0  0
   -3.0934   -2.2247   26.0409 O   0  0  0  0  0  0  0  0  0  0  0  0
   -2.3778   -1.7967   27.2179 C   0  0  0  0  0  0  0  0  0  0  0  0
   -1.3108   -2.6850   27.8987 C   0  0  0  0  0  0  0  0  0  0  0  0
   -1.1543   -4.2365   27.5654 C   0  0  0  0  0  0  0  0  0  0  0  0
   -5.9968  -10.5907   26.7943 N   0  0  0  0  0  0  0  0  0  0  0  0
   -5.9553  -16.7807   30.4243 H   0  0  0  0  0  0  0  0  0  0  0  0
   -6.2824  -17.2462   28.9483 H   0  0  0  0  0  0  0  0  0  0  0  0
   -4.6897  -16.4068   29.3433 H   0  0  0  0  0  0  0  0  0  0  0  0
   -5.2381  -15.3785   31.4224 H   0  0  0  0  0  0  0  0  0  0  0  0
   -6.7980  -13.1517   31.7336 H   0  0  0  0  0  0  0  0  0  0  0  0
   -2.6805   -7.7191   26.1807 H   0  0  0  0  0  0  0  0  0  0  0  0
   -5.7992   -3.2656   27.7943 H   0  0  0  0  0  0  0  0  0  0  0  0
   -1.9133   -0.8358   26.9633 H   0  0  0  0  0  0  0  0  0  0  0  0
   -3.1088   -1.5313   27.9703 H   0  0  0  0  0  0  0  0  0  0  0  0
   -1.4582   -2.6036   28.9861 H   0  0  0  0  0  0  0  0  0  0  0  0
   -0.3299   -2.2069   27.7659 H   0  0  0  0  0  0  0  0  0  0  0  0
   -1.3038   -4.7794   28.5111 H   0  0  0  0  0  0  0  0  0  0  0  0
   -0.1054   -4.2885   27.2777 H   0  0  0  0  0  0  0  0  0  0  0  0
  1  2  1  0
  2  3  1  0
  3  4  2  0
  4  5  1  0
  5  6  2  0
  6  7  1  0
  7  8  2  0
  8  9  1  0
  9 10  1  0
 10 11  1  0
 11 12  2  0
 12 13  1  0
 13 14  2  0
 14 15  1  0
 15 16  2  0
 14 17  1  0
 17 18  1  0
 18 19  1  0
 19 20  1  0
 10 21  2  0
  6  2  1  0
 21  7  1  0
 16 11  1  0
 20 13  1  0
  1 22  1  0
  1 23  1  0
  1 24  1  0
  3 25  1  0
  4 26  1  0
 12 27  1  0
 15 28  1  0
 18 29  1  0
 18 30  1  0
 19 31  1  0
 19 32  1  0
 20 33  1  0
 20 34  1  0
M  END
>  <Energy>  (1084) 
1794.0878488813842

>  <compound_id>  (1084) 
47999

>  <target_id>  (1084) 
1

>  <reference_id>  (1084) 
13

>  <inspiration_ids>  (1084) 
[115, 13]

>  <energy_score>  (1084) 
1653.3936011022674

>  <distance_score>  (1084) 
8.518529527326804

>  <path>  (1084) 
/opt/xchem-fragalysis-2/maxwin/BulkDock/SCRATCH/511024/C47999-P13/C47999-P13.minimised.mol

>  <scratch_subdir>  (1084) 
/opt/xchem-fragalysis-2/maxwin/BulkDock/SCRATCH/511024/C47999-P13

>  <fragmenstein_runtime>  (1084) 
15.9612398147583

>  <fragmenstein_outcome>  (1084) 
too moved

>  <fragmenstein_mode>  (1084) 
expansion

>  <fragmenstein_error>  (1084) 


$$$$
C48000-P115
     RDKit          3D

 34 37  0  0  0  0  0  0  0  0999 V2000
   -0.3625   -4.7600   28.3103 C   0  0  0  0  0  0  0  0  0  0  0  0
   -0.2192   -6.0999   28.3345 C   0  0  0  0  0  0  0  0  0  0  0  0
   -0.5292   -6.8679   27.1287 C   0  0  0  0  0  0  0  0  0  0  0  0
   -0.2992   -8.1517   26.8281 N   0  0  0  0  0  0  0  0  0  0  0  0
   -0.9276   -8.3469   25.5698 C   0  0  0  0  0  0  0  0  0  0  0  0
   -1.4828   -9.7839   24.9433 C   0  0  0  0  0  0  0  0  0  0  0  0
   -1.2072  -11.0216   25.3089 N   0  0  0  0  0  0  0  0  0  0  0  0
   -2.0594  -11.8583   24.6111 C   0  0  0  0  0  0  0  0  0  0  0  0
   -2.8913  -11.1248   23.8111 C   0  0  0  0  0  0  0  0  0  0  0  0
   -2.4827   -9.8254   23.9877 N   0  0  0  0  0  0  0  0  0  0  0  0
   -1.3988   -7.2007   25.0654 N   0  0  0  0  0  0  0  0  0  0  0  0
   -1.1427   -6.2664   26.0469 O   0  0  0  0  0  0  0  0  0  0  0  0
   -0.0330   -3.5498   29.0907 C   0  0  0  0  0  0  0  0  0  0  0  0
    1.2419   -3.2926   29.5922 C   0  0  0  0  0  0  0  0  0  0  0  0
    1.6139   -1.9756   29.9260 C   0  0  0  0  0  0  0  0  0  0  0  0
    0.7275   -0.9095   29.7407 C   0  0  0  0  0  0  0  0  0  0  0  0
   -0.5526   -1.1613   29.2626 C   0  0  0  0  0  0  0  0  0  0  0  0
   -0.9358   -2.4688   28.9825 C   0  0  0  0  0  0  0  0  0  0  0  0
   -1.4671   -0.1762   28.9855 O   0  0  0  0  0  0  0  0  0  0  0  0
   -0.8017    1.0751   28.7846 C   0  0  0  0  0  0  0  0  0  0  0  0
    0.1508    1.3391   29.9412 C   0  0  0  0  0  0  0  0  0  0  0  0
    1.1926    0.3545   29.9981 O   0  0  0  0  0  0  0  0  0  0  0  0
   -0.8364   -4.3866   27.4257 H   0  0  0  0  0  0  0  0  0  0  0  0
    0.2178   -6.6176   29.1764 H   0  0  0  0  0  0  0  0  0  0  0  0
   -2.0254  -12.9334   24.7296 H   0  0  0  0  0  0  0  0  0  0  0  0
   -3.6897  -11.3916   23.1337 H   0  0  0  0  0  0  0  0  0  0  0  0
   -2.8920   -8.9993   23.5723 H   0  0  0  0  0  0  0  0  0  0  0  0
    1.9854   -4.0834   29.6432 H   0  0  0  0  0  0  0  0  0  0  0  0
    2.6221   -1.7761   30.2802 H   0  0  0  0  0  0  0  0  0  0  0  0
   -1.9249   -2.6096   28.5595 H   0  0  0  0  0  0  0  0  0  0  0  0
   -1.5673    1.8541   28.7299 H   0  0  0  0  0  0  0  0  0  0  0  0
   -0.2745    1.0474   27.8224 H   0  0  0  0  0  0  0  0  0  0  0  0
   -0.3797    1.3303   30.9013 H   0  0  0  0  0  0  0  0  0  0  0  0
    0.6263    2.3177   29.8232 H   0  0  0  0  0  0  0  0  0  0  0  0
  1  2  2  3
  2  3  1  0
  3  4  2  0
  4  5  1  0
  5  6  1  0
  6  7  2  0
  7  8  1  0
  8  9  2  0
  9 10  1  0
  5 11  2  0
 11 12  1  0
  1 13  1  0
 13 14  2  0
 14 15  1  0
 15 16  2  0
 16 17  1  0
 17 18  2  0
 17 19  1  0
 19 20  1  0
 20 21  1  0
 21 22  1  0
 12  3  1  0
 18 13  1  0
 10  6  1  0
 22 16  1  0
  1 23  1  0
  2 24  1  0
  8 25  1  0
  9 26  1  0
 10 27  1  0
 14 28  1  0
 15 29  1  0
 18 30  1  0
 20 31  1  0
 20 32  1  0
 21 33  1  0
 21 34  1  0
M  END
>  <Energy>  (1085) 
93.989400092830806

>  <compound_id>  (1085) 
48000

>  <target_id>  (1085) 
1

>  <reference_id>  (1085) 
115

>  <inspiration_ids>  (1085) 
[115, 13]

>  <energy_score>  (1085) 
0.2821523938956716

>  <distance_score>  (1085) 
10.512068447829865

>  <path>  (1085) 
/opt/xchem-fragalysis-2/maxwin/BulkDock/SCRATCH/511024/C48000-P115/C48000-P115.minimised.mol

>  <scratch_subdir>  (1085) 
/opt/xchem-fragalysis-2/maxwin/BulkDock/SCRATCH/511024/C48000-P115

>  <fragmenstein_runtime>  (1085) 
14.212582349777222

>  <fragmenstein_outcome>  (1085) 
too moved

>  <fragmenstein_mode>  (1085) 
expansion

>  <fragmenstein_error>  (1085) 


$$$$
C48000-P13
     RDKit          3D

 34 37  0  0  0  0  0  0  0  0999 V2000
   -2.3488   -7.1866   28.7413 C   0  0  0  0  0  0  0  0  0  0  0  0
   -3.6492   -7.5160   29.1400 C   0  0  0  0  0  0  0  0  0  0  0  0
   -5.3648   -7.8837   28.5656 C   0  0  0  0  0  0  0  0  0  0  0  0
   -5.7697   -8.3110   27.3722 N   0  0  0  0  0  0  0  0  0  0  0  0
   -7.0844   -8.0287   27.1391 C   0  0  0  0  0  0  0  0  0  0  0  0
   -7.8108   -8.7438   25.9191 C   0  0  0  0  0  0  0  0  0  0  0  0
   -9.1077   -8.9222   25.7401 N   0  0  0  0  0  0  0  0  0  0  0  0
   -9.2379   -9.8866   24.7590 C   0  0  0  0  0  0  0  0  0  0  0  0
   -8.0032  -10.3126   24.3312 C   0  0  0  0  0  0  0  0  0  0  0  0
   -7.1054   -9.5380   25.0233 N   0  0  0  0  0  0  0  0  0  0  0  0
   -7.5031   -7.0518   27.9303 N   0  0  0  0  0  0  0  0  0  0  0  0
   -6.4058   -6.8480   28.7991 O   0  0  0  0  0  0  0  0  0  0  0  0
   -1.1512   -6.6848   29.7276 C   0  0  0  0  0  0  0  0  0  0  0  0
   -0.6832   -7.3266   30.8630 C   0  0  0  0  0  0  0  0  0  0  0  0
    0.1645   -6.6268   31.7625 C   0  0  0  0  0  0  0  0  0  0  0  0
    0.5348   -5.2825   31.5681 C   0  0  0  0  0  0  0  0  0  0  0  0
    0.1218   -4.6198   30.4360 C   0  0  0  0  0  0  0  0  0  0  0  0
   -0.6808   -5.3109   29.5505 C   0  0  0  0  0  0  0  0  0  0  0  0
    0.3767   -3.3080   30.1510 O   0  0  0  0  0  0  0  0  0  0  0  0
    1.3885   -2.7718   31.0049 C   0  0  0  0  0  0  0  0  0  0  0  0
    1.1891   -3.2377   32.4412 C   0  0  0  0  0  0  0  0  0  0  0  0
    1.2812   -4.6674   32.5369 O   0  0  0  0  0  0  0  0  0  0  0  0
   -2.3147   -6.9897   27.6843 H   0  0  0  0  0  0  0  0  0  0  0  0
   -3.4916   -7.7257   30.2193 H   0  0  0  0  0  0  0  0  0  0  0  0
  -10.2135  -10.2248   24.4318 H   0  0  0  0  0  0  0  0  0  0  0  0
   -7.6897  -11.0539   23.6095 H   0  0  0  0  0  0  0  0  0  0  0  0
   -6.0963   -9.6146   25.0256 H   0  0  0  0  0  0  0  0  0  0  0  0
   -0.9818   -8.3376   31.1172 H   0  0  0  0  0  0  0  0  0  0  0  0
    0.5000   -7.1318   32.6681 H   0  0  0  0  0  0  0  0  0  0  0  0
   -1.0605   -4.7086   28.7179 H   0  0  0  0  0  0  0  0  0  0  0  0
    1.3335   -1.6802   30.9485 H   0  0  0  0  0  0  0  0  0  0  0  0
    2.3665   -3.0860   30.6202 H   0  0  0  0  0  0  0  0  0  0  0  0
    0.2111   -2.9266   32.8295 H   0  0  0  0  0  0  0  0  0  0  0  0
    1.9626   -2.8114   33.0877 H   0  0  0  0  0  0  0  0  0  0  0  0
  1  2  2  3
  2  3  1  0
  3  4  2  0
  4  5  1  0
  5  6  1  0
  6  7  2  0
  7  8  1  0
  8  9  2  0
  9 10  1  0
  5 11  2  0
 11 12  1  0
  1 13  1  0
 13 14  2  0
 14 15  1  0
 15 16  2  0
 16 17  1  0
 17 18  2  0
 17 19  1  0
 19 20  1  0
 20 21  1  0
 21 22  1  0
 12  3  1  0
 18 13  1  0
 10  6  1  0
 22 16  1  0
  1 23  1  0
  2 24  1  0
  8 25  1  0
  9 26  1  0
 10 27  1  0
 14 28  1  0
 15 29  1  0
 18 30  1  0
 20 31  1  0
 20 32  1  0
 21 33  1  0
 21 34  1  0
M  END
>  <Energy>  (1086) 
190.03453335020069

>  <compound_id>  (1086) 
48000

>  <target_id>  (1086) 
1

>  <reference_id>  (1086) 
13

>  <inspiration_ids>  (1086) 
[115, 13]

>  <energy_score>  (1086) 
96.32728565126615

>  <distance_score>  (1086) 
11.167146982352506

>  <path>  (1086) 
/opt/xchem-fragalysis-2/maxwin/BulkDock/SCRATCH/511024/C48000-P13/C48000-P13.minimised.mol

>  <scratch_subdir>  (1086) 
/opt/xchem-fragalysis-2/maxwin/BulkDock/SCRATCH/511024/C48000-P13

>  <fragmenstein_runtime>  (1086) 
13.02710485458374

>  <fragmenstein_outcome>  (1086) 
too moved

>  <fragmenstein_mode>  (1086) 
expansion

>  <fragmenstein_error>  (1086) 


$$$$
C48012-P115
     RDKit          3D

 46 49  0  0  0  0  0  0  0  0999 V2000
   -7.2526  -17.9118   34.0267 C   0  0  0  0  0  0  0  0  0  0  0  0
   -6.7131  -16.8880   33.2670 C   0  0  0  0  0  0  0  0  0  0  0  0
   -7.6660  -15.9071   33.1623 N   0  0  0  0  0  0  0  0  0  0  0  0
   -7.7375  -14.6002   32.2438 C   0  0  0  0  0  0  0  0  0  0  0  0
   -6.4909  -13.6454   31.0412 C   0  0  0  0  0  0  0  0  0  0  0  0
   -5.6905  -11.7698   31.2805 C   0  0  0  0  0  0  0  0  0  0  0  0
   -4.6849  -10.5104   32.0445 N   0  0  0  0  0  0  0  0  0  0  0  0
   -4.3543   -9.1133   32.4314 C   0  0  0  0  0  0  0  0  0  0  0  0
   -2.8891   -8.7964   33.0465 C   0  0  0  0  0  0  0  0  0  0  0  0
   -2.6048   -9.1730   34.3636 C   0  0  0  0  0  0  0  0  0  0  0  0
   -1.4003   -8.6731   34.7078 N   0  0  0  0  0  0  0  0  0  0  0  0
   -0.8958   -7.8672   33.7991 N   0  0  0  0  0  0  0  0  0  0  0  0
   -1.7498   -7.8489   32.7599 C   0  0  0  0  0  0  0  0  0  0  0  0
   -1.3458   -6.8371   31.7304 C   0  0  0  0  0  0  0  0  0  0  0  0
   -0.8199   -7.1853   30.4872 C   0  0  0  0  0  0  0  0  0  0  0  0
   -0.3332   -6.2098   29.5839 C   0  0  0  0  0  0  0  0  0  0  0  0
   -0.3097   -4.8579   29.9175 C   0  0  0  0  0  0  0  0  0  0  0  0
   -0.7840   -4.4803   31.1706 C   0  0  0  0  0  0  0  0  0  0  0  0
   -1.2325   -5.4646   32.0801 C   0  0  0  0  0  0  0  0  0  0  0  0
   -0.9170   -3.1641   31.5413 O   0  0  0  0  0  0  0  0  0  0  0  0
   -0.9043   -2.2984   30.3969 C   0  0  0  0  0  0  0  0  0  0  0  0
    0.2420   -2.6456   29.4628 C   0  0  0  0  0  0  0  0  0  0  0  0
    0.1019   -3.9762   28.9543 O   0  0  0  0  0  0  0  0  0  0  0  0
   -8.7692  -16.4974   33.8111 C   0  0  0  0  0  0  0  0  0  0  0  0
   -8.5136  -17.6325   34.4115 N   0  0  0  0  0  0  0  0  0  0  0  0
   -6.8211  -18.8688   34.2826 H   0  0  0  0  0  0  0  0  0  0  0  0
   -5.7754  -16.8109   32.7461 H   0  0  0  0  0  0  0  0  0  0  0  0
   -7.7081  -13.8063   32.9762 H   0  0  0  0  0  0  0  0  0  0  0  0
   -8.7567  -14.6471   31.9321 H   0  0  0  0  0  0  0  0  0  0  0  0
   -6.8865  -13.7912   30.0362 H   0  0  0  0  0  0  0  0  0  0  0  0
   -5.7523  -14.3421   30.6374 H   0  0  0  0  0  0  0  0  0  0  0  0
   -6.4107  -11.7208   32.0409 H   0  0  0  0  0  0  0  0  0  0  0  0
   -4.8406  -12.1806   30.7472 H   0  0  0  0  0  0  0  0  0  0  0  0
   -3.7850  -10.7648   31.6049 H   0  0  0  0  0  0  0  0  0  0  0  0
   -4.9857   -8.8816   33.2923 H   0  0  0  0  0  0  0  0  0  0  0  0
   -4.4559   -8.4540   31.6083 H   0  0  0  0  0  0  0  0  0  0  0  0
   -3.1733   -9.7317   35.0938 H   0  0  0  0  0  0  0  0  0  0  0  0
   -0.8882   -8.7882   35.5766 H   0  0  0  0  0  0  0  0  0  0  0  0
   -0.6787   -8.2287   30.2205 H   0  0  0  0  0  0  0  0  0  0  0  0
    0.0321   -6.5353   28.6141 H   0  0  0  0  0  0  0  0  0  0  0  0
   -1.5103   -5.1512   33.0844 H   0  0  0  0  0  0  0  0  0  0  0  0
   -0.7992   -1.2713   30.7601 H   0  0  0  0  0  0  0  0  0  0  0  0
   -1.8730   -2.3812   29.8884 H   0  0  0  0  0  0  0  0  0  0  0  0
    0.2579   -1.9617   28.6084 H   0  0  0  0  0  0  0  0  0  0  0  0
    1.2082   -2.5753   29.9769 H   0  0  0  0  0  0  0  0  0  0  0  0
   -9.7496  -16.0410   33.7863 H   0  0  0  0  0  0  0  0  0  0  0  0
  1  2  2  0
  2  3  1  0
  3  4  1  0
  4  5  1  0
  5  6  1  0
  6  7  1  0
  7  8  1  0
  8  9  1  0
  9 10  2  0
 10 11  1  0
 11 12  1  0
 12 13  2  0
 13 14  1  0
 14 15  2  0
 15 16  1  0
 16 17  2  0
 17 18  1  0
 18 19  2  0
 18 20  1  0
 20 21  1  0
 21 22  1  0
 22 23  1  0
  3 24  1  0
 24 25  2  0
 25  1  1  0
 13  9  1  0
 19 14  1  0
 23 17  1  0
  1 26  1  0
  2 27  1  0
  4 28  1  0
  4 29  1  0
  5 30  1  0
  5 31  1  0
  6 32  1  0
  6 33  1  0
  7 34  1  0
  8 35  1  0
  8 36  1  0
 10 37  1  0
 11 38  1  0
 15 39  1  0
 16 40  1  0
 19 41  1  0
 21 42  1  0
 21 43  1  0
 22 44  1  0
 22 45  1  0
 24 46  1  0
M  END
>  <Energy>  (1087) 
376.9239817308212

>  <compound_id>  (1087) 
48012

>  <target_id>  (1087) 
1

>  <reference_id>  (1087) 
115

>  <inspiration_ids>  (1087) 
[115, 13]

>  <energy_score>  (1087) 
288.37868430042374

>  <distance_score>  (1087) 
8.19095094537492

>  <path>  (1087) 
/opt/xchem-fragalysis-2/maxwin/BulkDock/SCRATCH/511024/C48012-P115/C48012-P115.minimised.mol

>  <scratch_subdir>  (1087) 
/opt/xchem-fragalysis-2/maxwin/BulkDock/SCRATCH/511024/C48012-P115

>  <fragmenstein_runtime>  (1087) 
21.281179666519165

>  <fragmenstein_outcome>  (1087) 
too moved

>  <fragmenstein_mode>  (1087) 
expansion

>  <fragmenstein_error>  (1087) 


$$$$
C48012-P13
     RDKit          3D

 46 49  0  0  0  0  0  0  0  0999 V2000
  -11.0147  -17.9925   35.8915 C   0  0  0  0  0  0  0  0  0  0  0  0
  -11.1761  -16.8031   35.2294 C   0  0  0  0  0  0  0  0  0  0  0  0
  -10.0095  -16.5932   34.4566 N   0  0  0  0  0  0  0  0  0  0  0  0
   -9.8415  -15.3867   33.4723 C   0  0  0  0  0  0  0  0  0  0  0  0
   -8.6054  -14.1088   32.7294 C   0  0  0  0  0  0  0  0  0  0  0  0
   -7.5186  -12.4229   33.0306 C   0  0  0  0  0  0  0  0  0  0  0  0
   -6.1008  -11.1596   33.2959 N   0  0  0  0  0  0  0  0  0  0  0  0
   -5.6158  -10.3760   34.8632 C   0  0  0  0  0  0  0  0  0  0  0  0
   -4.4832   -9.1620   35.0711 C   0  0  0  0  0  0  0  0  0  0  0  0
   -4.5156   -8.7600   36.4240 C   0  0  0  0  0  0  0  0  0  0  0  0
   -3.3166   -9.1822   36.9519 N   0  0  0  0  0  0  0  0  0  0  0  0
   -2.4243   -9.5450   36.0194 N   0  0  0  0  0  0  0  0  0  0  0  0
   -2.9609   -9.0495   34.8837 C   0  0  0  0  0  0  0  0  0  0  0  0
   -2.0749   -7.9733   34.2194 C   0  0  0  0  0  0  0  0  0  0  0  0
   -1.5559   -6.9322   35.0284 C   0  0  0  0  0  0  0  0  0  0  0  0
   -0.8763   -5.8199   34.4997 C   0  0  0  0  0  0  0  0  0  0  0  0
   -0.6882   -5.7095   33.1340 C   0  0  0  0  0  0  0  0  0  0  0  0
   -1.0819   -6.7718   32.3099 C   0  0  0  0  0  0  0  0  0  0  0  0
   -1.7672   -7.8992   32.8453 C   0  0  0  0  0  0  0  0  0  0  0  0
   -0.8673   -6.7344   30.9499 O   0  0  0  0  0  0  0  0  0  0  0  0
    0.1003   -5.7246   30.6154 C   0  0  0  0  0  0  0  0  0  0  0  0
   -0.2398   -4.4010   31.2733 C   0  0  0  0  0  0  0  0  0  0  0  0
   -0.1293   -4.5375   32.6894 O   0  0  0  0  0  0  0  0  0  0  0  0
   -9.4237  -17.8406   34.5124 C   0  0  0  0  0  0  0  0  0  0  0  0
   -9.8884  -18.6162   35.4688 N   0  0  0  0  0  0  0  0  0  0  0  0
  -11.6786  -18.4430   36.6158 H   0  0  0  0  0  0  0  0  0  0  0  0
  -11.9803  -16.0824   35.2298 H   0  0  0  0  0  0  0  0  0  0  0  0
  -10.8551  -15.0355   33.3063 H   0  0  0  0  0  0  0  0  0  0  0  0
   -9.5807  -16.0746   32.7236 H   0  0  0  0  0  0  0  0  0  0  0  0
   -9.4958  -13.5094   32.6247 H   0  0  0  0  0  0  0  0  0  0  0  0
   -8.2342  -14.5718   31.8208 H   0  0  0  0  0  0  0  0  0  0  0  0
   -8.2874  -11.6963   32.7900 H   0  0  0  0  0  0  0  0  0  0  0  0
   -6.9328  -12.6568   32.1374 H   0  0  0  0  0  0  0  0  0  0  0  0
   -6.9578  -10.6516   33.4975 H   0  0  0  0  0  0  0  0  0  0  0  0
   -5.2043  -11.0943   35.5966 H   0  0  0  0  0  0  0  0  0  0  0  0
   -6.5155  -10.1238   35.4468 H   0  0  0  0  0  0  0  0  0  0  0  0
   -5.3455   -8.6521   37.1106 H   0  0  0  0  0  0  0  0  0  0  0  0
   -3.0657   -9.2911   37.9303 H   0  0  0  0  0  0  0  0  0  0  0  0
   -1.7303   -6.9465   36.1026 H   0  0  0  0  0  0  0  0  0  0  0  0
   -0.5604   -5.0172   35.1607 H   0  0  0  0  0  0  0  0  0  0  0  0
   -2.1032   -8.6849   32.1765 H   0  0  0  0  0  0  0  0  0  0  0  0
    0.0895   -5.5844   29.5399 H   0  0  0  0  0  0  0  0  0  0  0  0
    1.0965   -6.0827   30.9042 H   0  0  0  0  0  0  0  0  0  0  0  0
    0.4629   -3.6246   30.9557 H   0  0  0  0  0  0  0  0  0  0  0  0
   -1.2548   -4.0668   31.0312 H   0  0  0  0  0  0  0  0  0  0  0  0
   -8.6566  -18.1709   33.8355 H   0  0  0  0  0  0  0  0  0  0  0  0
  1  2  2  0
  2  3  1  0
  3  4  1  0
  4  5  1  0
  5  6  1  0
  6  7  1  0
  7  8  1  0
  8  9  1  0
  9 10  2  0
 10 11  1  0
 11 12  1  0
 12 13  2  0
 13 14  1  0
 14 15  2  0
 15 16  1  0
 16 17  2  0
 17 18  1  0
 18 19  2  0
 18 20  1  0
 20 21  1  0
 21 22  1  0
 22 23  1  0
  3 24  1  0
 24 25  2  0
 25  1  1  0
 13  9  1  0
 19 14  1  0
 23 17  1  0
  1 26  1  0
  2 27  1  0
  4 28  1  0
  4 29  1  0
  5 30  1  0
  5 31  1  0
  6 32  1  0
  6 33  1  0
  7 34  1  0
  8 35  1  0
  8 36  1  0
 10 37  1  0
 11 38  1  0
 15 39  1  0
 16 40  1  0
 19 41  1  0
 21 42  1  0
 21 43  1  0
 22 44  1  0
 22 45  1  0
 24 46  1  0
M  END
>  <Energy>  (1088) 
503.34549523115254

>  <compound_id>  (1088) 
48012

>  <target_id>  (1088) 
1

>  <reference_id>  (1088) 
13

>  <inspiration_ids>  (1088) 
[115, 13]

>  <energy_score>  (1088) 
414.80019780075713

>  <distance_score>  (1088) 
9.667175186386384

>  <path>  (1088) 
/opt/xchem-fragalysis-2/maxwin/BulkDock/SCRATCH/511024/C48012-P13/C48012-P13.minimised.mol

>  <scratch_subdir>  (1088) 
/opt/xchem-fragalysis-2/maxwin/BulkDock/SCRATCH/511024/C48012-P13

>  <fragmenstein_runtime>  (1088) 
16.426101446151733

>  <fragmenstein_outcome>  (1088) 
too moved

>  <fragmenstein_mode>  (1088) 
expansion

>  <fragmenstein_error>  (1088) 


$$$$
C48025-P115
     RDKit          3D

 42 44  0  0  0  0  0  0  0  0999 V2000
   -9.6474  -14.3011   26.5218 C   0  0  0  0  0  0  0  0  0  0  0  0
   -8.3023  -14.0323   27.1619 C   0  0  0  0  0  0  0  0  0  0  0  0
   -7.2868  -13.1753   26.9622 N   0  0  0  0  0  0  0  0  0  0  0  0
   -6.6388  -13.1064   28.1660 C   0  0  0  0  0  0  0  0  0  0  0  0
   -5.5521  -11.9427   29.1186 C   0  0  0  0  0  0  0  0  0  0  0  0
   -6.4800  -10.1457   29.5366 C   0  0  0  0  0  0  0  0  0  0  0  0
   -7.4592   -9.2147   28.8118 N   0  0  0  0  0  0  0  0  0  0  0  0
   -7.2531   -7.9697   28.1420 C   0  0  0  0  0  0  0  0  0  0  0  0
   -6.2522   -7.3705   27.9024 O   0  0  0  0  0  0  0  0  0  0  0  0
   -8.6375   -7.4289   27.8474 C   0  0  0  0  0  0  0  0  0  0  0  0
   -9.3029   -6.6990   26.9467 C   0  0  0  0  0  0  0  0  0  0  0  0
   -9.0296   -6.1984   25.6121 C   0  0  0  0  0  0  0  0  0  0  0  0
   -8.4874   -7.0233   24.6277 C   0  0  0  0  0  0  0  0  0  0  0  0
   -8.3389   -6.5357   23.3287 C   0  0  0  0  0  0  0  0  0  0  0  0
   -8.6701   -5.2137   23.0224 C   0  0  0  0  0  0  0  0  0  0  0  0
   -9.1668   -4.3677   24.0107 C   0  0  0  0  0  0  0  0  0  0  0  0
   -9.4068   -4.8752   25.2886 C   0  0  0  0  0  0  0  0  0  0  0  0
   -9.3886   -3.0325   23.8106 O   0  0  0  0  0  0  0  0  0  0  0  0
   -9.5717   -2.7436   22.4236 C   0  0  0  0  0  0  0  0  0  0  0  0
   -8.5449   -3.4337   21.5372 C   0  0  0  0  0  0  0  0  0  0  0  0
   -8.4962   -4.8433   21.7194 O   0  0  0  0  0  0  0  0  0  0  0  0
   -6.7658  -14.2794   28.7180 C   0  0  0  0  0  0  0  0  0  0  0  0
   -7.8085  -14.8444   28.0777 N   0  0  0  0  0  0  0  0  0  0  0  0
   -9.5508  -15.0689   25.7478 H   0  0  0  0  0  0  0  0  0  0  0  0
  -10.1145  -13.4014   26.1096 H   0  0  0  0  0  0  0  0  0  0  0  0
  -10.4179  -14.6332   27.2176 H   0  0  0  0  0  0  0  0  0  0  0  0
   -5.2165  -12.4070   30.0878 H   0  0  0  0  0  0  0  0  0  0  0  0
   -4.5364  -12.0724   28.6784 H   0  0  0  0  0  0  0  0  0  0  0  0
   -6.0372   -9.3305   30.1133 H   0  0  0  0  0  0  0  0  0  0  0  0
   -7.1490  -10.3875   30.3042 H   0  0  0  0  0  0  0  0  0  0  0  0
   -8.4401   -9.4595   28.7599 H   0  0  0  0  0  0  0  0  0  0  0  0
   -9.2772   -7.6285   28.7129 H   0  0  0  0  0  0  0  0  0  0  0  0
  -10.3347   -6.4669   27.2281 H   0  0  0  0  0  0  0  0  0  0  0  0
   -8.2137   -8.0529   24.8503 H   0  0  0  0  0  0  0  0  0  0  0  0
   -7.9486   -7.1884   22.5515 H   0  0  0  0  0  0  0  0  0  0  0  0
   -9.8188   -4.2174   26.0500 H   0  0  0  0  0  0  0  0  0  0  0  0
  -10.5871   -3.0533   22.1452 H   0  0  0  0  0  0  0  0  0  0  0  0
   -9.5107   -1.6582   22.2944 H   0  0  0  0  0  0  0  0  0  0  0  0
   -7.5356   -3.0798   21.7190 H   0  0  0  0  0  0  0  0  0  0  0  0
   -8.7733   -3.2377   20.4844 H   0  0  0  0  0  0  0  0  0  0  0  0
   -6.1477  -14.6224   29.5483 H   0  0  0  0  0  0  0  0  0  0  0  0
   -7.9351  -15.8462   28.0378 H   0  0  0  0  0  0  0  0  0  0  0  0
  1  2  1  0
  2  3  2  0
  3  4  1  0
  4  5  1  0
  5  6  1  0
  6  7  1  0
  7  8  1  0
  8  9  2  0
  8 10  1  0
 10 11  2  3
 11 12  1  0
 12 13  2  0
 13 14  1  0
 14 15  2  0
 15 16  1  0
 16 17  2  0
 16 18  1  0
 18 19  1  0
 19 20  1  0
 20 21  1  0
  4 22  2  0
 22 23  1  0
 23  2  1  0
 17 12  1  0
 21 15  1  0
  1 24  1  0
  1 25  1  0
  1 26  1  0
  5 27  1  0
  5 28  1  0
  6 29  1  0
  6 30  1  0
  7 31  1  0
 10 32  1  0
 11 33  1  0
 13 34  1  0
 14 35  1  0
 17 36  1  0
 19 37  1  0
 19 38  1  0
 20 39  1  0
 20 40  1  0
 22 41  1  0
 23 42  1  0
M  END
>  <Energy>  (1089) 
220.29287695255709

>  <compound_id>  (1089) 
48025

>  <target_id>  (1089) 
1

>  <reference_id>  (1089) 
115

>  <inspiration_ids>  (1089) 
[115, 13]

>  <energy_score>  (1089) 
172.17204660270818

>  <distance_score>  (1089) 
10.993923948578669

>  <path>  (1089) 
/opt/xchem-fragalysis-2/maxwin/BulkDock/SCRATCH/511024/C48025-P115/C48025-P115.minimised.mol

>  <scratch_subdir>  (1089) 
/opt/xchem-fragalysis-2/maxwin/BulkDock/SCRATCH/511024/C48025-P115

>  <fragmenstein_runtime>  (1089) 
15.87898325920105

>  <fragmenstein_outcome>  (1089) 
too moved

>  <fragmenstein_mode>  (1089) 
expansion

>  <fragmenstein_error>  (1089) 


$$$$
C48025-P13
     RDKit          3D

 42 44  0  0  0  0  0  0  0  0999 V2000
   -8.9058  -13.9824   32.8690 C   0  0  0  0  0  0  0  0  0  0  0  0
   -7.4384  -13.1597   32.6278 C   0  0  0  0  0  0  0  0  0  0  0  0
   -7.2745  -11.8865   32.5499 N   0  0  0  0  0  0  0  0  0  0  0  0
   -6.6546  -11.7217   31.3533 C   0  0  0  0  0  0  0  0  0  0  0  0
   -6.7591  -10.1140   30.0744 C   0  0  0  0  0  0  0  0  0  0  0  0
   -6.0055   -8.3770   29.3505 C   0  0  0  0  0  0  0  0  0  0  0  0
   -4.1739   -7.7074   29.1534 N   0  0  0  0  0  0  0  0  0  0  0  0
   -2.8622   -7.5760   30.3510 C   0  0  0  0  0  0  0  0  0  0  0  0
   -2.8573   -7.9160   31.5281 O   0  0  0  0  0  0  0  0  0  0  0  0
   -1.5232   -7.0486   29.8221 C   0  0  0  0  0  0  0  0  0  0  0  0
   -0.7336   -6.2658   30.6185 C   0  0  0  0  0  0  0  0  0  0  0  0
   -0.1161   -4.9762   30.1477 C   0  0  0  0  0  0  0  0  0  0  0  0
    1.1511   -4.8853   29.5679 C   0  0  0  0  0  0  0  0  0  0  0  0
    1.5880   -3.6796   28.9787 C   0  0  0  0  0  0  0  0  0  0  0  0
    0.7662   -2.5508   28.9602 C   0  0  0  0  0  0  0  0  0  0  0  0
   -0.4723   -2.6079   29.5869 C   0  0  0  0  0  0  0  0  0  0  0  0
   -0.8734   -3.7858   30.2260 C   0  0  0  0  0  0  0  0  0  0  0  0
   -1.3571   -1.5573   29.5985 O   0  0  0  0  0  0  0  0  0  0  0  0
   -1.0924   -0.6774   28.4957 C   0  0  0  0  0  0  0  0  0  0  0  0
    0.3813   -0.3003   28.4839 C   0  0  0  0  0  0  0  0  0  0  0  0
    1.2292   -1.4427   28.3017 O   0  0  0  0  0  0  0  0  0  0  0  0
   -6.4261  -13.3272   30.7088 C   0  0  0  0  0  0  0  0  0  0  0  0
   -6.6628  -13.9977   31.7155 N   0  0  0  0  0  0  0  0  0  0  0  0
   -9.5906  -13.1920   32.8480 H   0  0  0  0  0  0  0  0  0  0  0  0
   -8.8921  -14.6097   32.0139 H   0  0  0  0  0  0  0  0  0  0  0  0
   -9.3422  -14.6952   33.5529 H   0  0  0  0  0  0  0  0  0  0  0  0
   -6.3862  -10.7080   29.3015 H   0  0  0  0  0  0  0  0  0  0  0  0
   -7.8089   -9.9494   29.8442 H   0  0  0  0  0  0  0  0  0  0  0  0
   -6.2943   -8.4345   28.2804 H   0  0  0  0  0  0  0  0  0  0  0  0
   -6.6333   -7.5027   29.5634 H   0  0  0  0  0  0  0  0  0  0  0  0
   -3.8356   -7.4154   28.2396 H   0  0  0  0  0  0  0  0  0  0  0  0
   -1.6321   -6.9340   28.7722 H   0  0  0  0  0  0  0  0  0  0  0  0
   -0.8467   -6.3170   31.7020 H   0  0  0  0  0  0  0  0  0  0  0  0
    1.7992   -5.7571   29.5273 H   0  0  0  0  0  0  0  0  0  0  0  0
    2.5663   -3.6352   28.5070 H   0  0  0  0  0  0  0  0  0  0  0  0
   -1.8271   -3.7657   30.7412 H   0  0  0  0  0  0  0  0  0  0  0  0
   -1.3988   -1.1714   27.5665 H   0  0  0  0  0  0  0  0  0  0  0  0
   -1.7118    0.2154   28.6267 H   0  0  0  0  0  0  0  0  0  0  0  0
    0.6687    0.1843   29.4249 H   0  0  0  0  0  0  0  0  0  0  0  0
    0.5857    0.3977   27.6661 H   0  0  0  0  0  0  0  0  0  0  0  0
   -6.1291  -13.6580   29.7395 H   0  0  0  0  0  0  0  0  0  0  0  0
   -6.4746  -14.9860   31.7379 H   0  0  0  0  0  0  0  0  0  0  0  0
  1  2  1  0
  2  3  2  0
  3  4  1  0
  4  5  1  0
  5  6  1  0
  6  7  1  0
  7  8  1  0
  8  9  2  0
  8 10  1  0
 10 11  2  3
 11 12  1  0
 12 13  2  0
 13 14  1  0
 14 15  2  0
 15 16  1  0
 16 17  2  0
 16 18  1  0
 18 19  1  0
 19 20  1  0
 20 21  1  0
  4 22  2  0
 22 23  1  0
 23  2  1  0
 17 12  1  0
 21 15  1  0
  1 24  1  0
  1 25  1  0
  1 26  1  0
  5 27  1  0
  5 28  1  0
  6 29  1  0
  6 30  1  0
  7 31  1  0
 10 32  1  0
 11 33  1  0
 13 34  1  0
 14 35  1  0
 17 36  1  0
 19 37  1  0
 19 38  1  0
 20 39  1  0
 20 40  1  0
 22 41  1  0
 23 42  1  0
M  END
>  <Energy>  (1090) 
448.35942255473617

>  <compound_id>  (1090) 
48025

>  <target_id>  (1090) 
1

>  <reference_id>  (1090) 
13

>  <inspiration_ids>  (1090) 
[115, 13]

>  <energy_score>  (1090) 
400.2385922048853

>  <distance_score>  (1090) 
8.386500464577022

>  <path>  (1090) 
/opt/xchem-fragalysis-2/maxwin/BulkDock/SCRATCH/511024/C48025-P13/C48025-P13.minimised.mol

>  <scratch_subdir>  (1090) 
/opt/xchem-fragalysis-2/maxwin/BulkDock/SCRATCH/511024/C48025-P13

>  <fragmenstein_runtime>  (1090) 
22.530613660812378

>  <fragmenstein_outcome>  (1090) 
too moved

>  <fragmenstein_mode>  (1090) 
expansion

>  <fragmenstein_error>  (1090) 


$$$$
C48026-P115
     RDKit          3D

 42 44  0  0  0  0  0  0  0  0999 V2000
   -9.5738  -17.1630   34.6768 C   0  0  0  0  0  0  0  0  0  0  0  0
   -8.6371  -16.5732   33.7508 N   0  0  0  0  0  0  0  0  0  0  0  0
   -7.3329  -16.8841   33.7525 C   0  0  0  0  0  0  0  0  0  0  0  0
   -6.6912  -15.9600   33.1048 N   0  0  0  0  0  0  0  0  0  0  0  0
   -7.6786  -14.8200   32.4862 C   0  0  0  0  0  0  0  0  0  0  0  0
   -6.7703  -13.2783   31.5708 C   0  0  0  0  0  0  0  0  0  0  0  0
   -5.4792  -11.7481   31.3842 C   0  0  0  0  0  0  0  0  0  0  0  0
   -4.6254  -10.2982   32.1353 N   0  0  0  0  0  0  0  0  0  0  0  0
   -3.1280   -9.7537   31.9333 C   0  0  0  0  0  0  0  0  0  0  0  0
   -2.2278  -10.1835   31.2436 O   0  0  0  0  0  0  0  0  0  0  0  0
   -2.6874   -8.4372   32.6056 C   0  0  0  0  0  0  0  0  0  0  0  0
   -1.7577   -7.7113   31.8854 C   0  0  0  0  0  0  0  0  0  0  0  0
   -1.0742   -6.3679   31.7247 C   0  0  0  0  0  0  0  0  0  0  0  0
   -0.3703   -6.1683   30.5047 C   0  0  0  0  0  0  0  0  0  0  0  0
    0.0713   -4.9095   30.0595 C   0  0  0  0  0  0  0  0  0  0  0  0
   -0.2040   -3.7869   30.8128 C   0  0  0  0  0  0  0  0  0  0  0  0
   -0.8591   -3.9489   32.0357 C   0  0  0  0  0  0  0  0  0  0  0  0
   -1.2115   -5.2370   32.5224 C   0  0  0  0  0  0  0  0  0  0  0  0
   -1.2465   -2.8646   32.7894 O   0  0  0  0  0  0  0  0  0  0  0  0
   -1.2586   -1.6560   32.0127 C   0  0  0  0  0  0  0  0  0  0  0  0
    0.0384   -1.5221   31.2373 C   0  0  0  0  0  0  0  0  0  0  0  0
    0.1556   -2.5775   30.2808 O   0  0  0  0  0  0  0  0  0  0  0  0
   -8.8802  -15.5265   32.8088 C   0  0  0  0  0  0  0  0  0  0  0  0
  -10.4925  -16.5755   34.7047 H   0  0  0  0  0  0  0  0  0  0  0  0
   -9.1213  -17.1562   35.6732 H   0  0  0  0  0  0  0  0  0  0  0  0
   -9.7640  -18.1962   34.3774 H   0  0  0  0  0  0  0  0  0  0  0  0
   -6.9236  -17.7478   34.2522 H   0  0  0  0  0  0  0  0  0  0  0  0
   -6.6326  -13.7805   30.6029 H   0  0  0  0  0  0  0  0  0  0  0  0
   -7.2321  -12.4484   32.0822 H   0  0  0  0  0  0  0  0  0  0  0  0
   -4.7549  -12.1290   30.6439 H   0  0  0  0  0  0  0  0  0  0  0  0
   -6.0385  -11.0029   30.8404 H   0  0  0  0  0  0  0  0  0  0  0  0
   -5.0892   -9.7522   32.8440 H   0  0  0  0  0  0  0  0  0  0  0  0
   -3.0534   -8.2076   33.5850 H   0  0  0  0  0  0  0  0  0  0  0  0
   -1.3049   -8.2944   31.0803 H   0  0  0  0  0  0  0  0  0  0  0  0
   -0.2056   -7.0060   29.8250 H   0  0  0  0  0  0  0  0  0  0  0  0
    0.5663   -4.8148   29.0975 H   0  0  0  0  0  0  0  0  0  0  0  0
   -1.6672   -5.3259   33.4983 H   0  0  0  0  0  0  0  0  0  0  0  0
   -1.3751   -0.8186   32.7076 H   0  0  0  0  0  0  0  0  0  0  0  0
   -2.1316   -1.6751   31.3483 H   0  0  0  0  0  0  0  0  0  0  0  0
    0.9104   -1.5552   31.9019 H   0  0  0  0  0  0  0  0  0  0  0  0
    0.0588   -0.5737   30.6914 H   0  0  0  0  0  0  0  0  0  0  0  0
   -9.9193  -15.2709   32.7656 H   0  0  0  0  0  0  0  0  0  0  0  0
  1  2  1  0
  2  3  1  0
  3  4  2  0
  4  5  1  0
  5  6  1  0
  6  7  1  0
  7  8  1  0
  8  9  1  0
  9 10  2  0
  9 11  1  0
 11 12  2  3
 12 13  1  0
 13 14  2  0
 14 15  1  0
 15 16  2  0
 16 17  1  0
 17 18  2  0
 17 19  1  0
 19 20  1  0
 20 21  1  0
 21 22  1  0
  5 23  2  0
 23  2  1  0
 18 13  1  0
 22 16  1  0
  1 24  1  0
  1 25  1  0
  1 26  1  0
  3 27  1  0
  6 28  1  0
  6 29  1  0
  7 30  1  0
  7 31  1  0
  8 32  1  0
 11 33  1  0
 12 34  1  0
 14 35  1  0
 15 36  1  0
 18 37  1  0
 20 38  1  0
 20 39  1  0
 21 40  1  0
 21 41  1  0
 23 42  1  0
M  END
>  <Energy>  (1091) 
385.83630614669033

>  <compound_id>  (1091) 
48026

>  <target_id>  (1091) 
1

>  <reference_id>  (1091) 
115

>  <inspiration_ids>  (1091) 
[115, 13]

>  <energy_score>  (1091) 
328.2324768377579

>  <distance_score>  (1091) 
8.416082625432187

>  <path>  (1091) 
/opt/xchem-fragalysis-2/maxwin/BulkDock/SCRATCH/511024/C48026-P115/C48026-P115.minimised.mol

>  <scratch_subdir>  (1091) 
/opt/xchem-fragalysis-2/maxwin/BulkDock/SCRATCH/511024/C48026-P115

>  <fragmenstein_runtime>  (1091) 
17.29008173942566

>  <fragmenstein_outcome>  (1091) 
too moved

>  <fragmenstein_mode>  (1091) 
expansion

>  <fragmenstein_error>  (1091) 


$$$$
C48026-P13
     RDKit          3D

 42 44  0  0  0  0  0  0  0  0999 V2000
   -2.5974  -21.5192   30.0307 C   0  0  0  0  0  0  0  0  0  0  0  0
   -3.9435  -21.1271   29.6200 N   0  0  0  0  0  0  0  0  0  0  0  0
   -5.1194  -20.3259   30.8077 C   0  0  0  0  0  0  0  0  0  0  0  0
   -5.9875  -18.7988   29.9127 N   0  0  0  0  0  0  0  0  0  0  0  0
   -5.0856  -18.8542   28.0336 C   0  0  0  0  0  0  0  0  0  0  0  0
   -3.7075  -17.7846   27.5187 C   0  0  0  0  0  0  0  0  0  0  0  0
   -2.7141  -17.5102   26.3356 C   0  0  0  0  0  0  0  0  0  0  0  0
   -1.7846  -16.3408   26.8156 N   0  0  0  0  0  0  0  0  0  0  0  0
   -1.3405  -15.1296   26.1332 C   0  0  0  0  0  0  0  0  0  0  0  0
   -1.5089  -14.7630   25.0047 O   0  0  0  0  0  0  0  0  0  0  0  0
   -0.6173  -14.1271   27.1009 C   0  0  0  0  0  0  0  0  0  0  0  0
   -0.5092  -12.7978   26.8048 C   0  0  0  0  0  0  0  0  0  0  0  0
    0.1128  -11.6456   27.5453 C   0  0  0  0  0  0  0  0  0  0  0  0
    1.1909  -10.9592   26.9561 C   0  0  0  0  0  0  0  0  0  0  0  0
    1.7377   -9.7967   27.5321 C   0  0  0  0  0  0  0  0  0  0  0  0
    1.1851   -9.2633   28.6903 C   0  0  0  0  0  0  0  0  0  0  0  0
    0.0809   -9.8872   29.2696 C   0  0  0  0  0  0  0  0  0  0  0  0
   -0.4175  -11.0982   28.7276 C   0  0  0  0  0  0  0  0  0  0  0  0
   -0.5936   -9.3435   30.3419 O   0  0  0  0  0  0  0  0  0  0  0  0
   -0.1993   -7.9894   30.6263 C   0  0  0  0  0  0  0  0  0  0  0  0
    1.3049   -7.8258   30.4992 C   0  0  0  0  0  0  0  0  0  0  0  0
    1.7196   -8.0857   29.1539 O   0  0  0  0  0  0  0  0  0  0  0  0
   -4.1553  -20.3740   27.9992 C   0  0  0  0  0  0  0  0  0  0  0  0
   -2.3536  -22.4363   29.4955 H   0  0  0  0  0  0  0  0  0  0  0  0
   -1.8922  -20.7418   29.7290 H   0  0  0  0  0  0  0  0  0  0  0  0
   -2.5888  -21.6470   31.1136 H   0  0  0  0  0  0  0  0  0  0  0  0
   -4.8345  -20.5034   31.8709 H   0  0  0  0  0  0  0  0  0  0  0  0
   -3.8237  -16.8601   28.0779 H   0  0  0  0  0  0  0  0  0  0  0  0
   -2.9291  -18.3654   28.0340 H   0  0  0  0  0  0  0  0  0  0  0  0
   -3.1768  -17.1952   25.3999 H   0  0  0  0  0  0  0  0  0  0  0  0
   -2.0594  -18.3653   26.1379 H   0  0  0  0  0  0  0  0  0  0  0  0
   -1.3899  -16.3599   27.7455 H   0  0  0  0  0  0  0  0  0  0  0  0
   -0.2294  -14.5290   28.0269 H   0  0  0  0  0  0  0  0  0  0  0  0
   -0.9256  -12.4729   25.8474 H   0  0  0  0  0  0  0  0  0  0  0  0
    1.6202  -11.3312   26.0260 H   0  0  0  0  0  0  0  0  0  0  0  0
    2.5827   -9.3065   27.0556 H   0  0  0  0  0  0  0  0  0  0  0  0
   -1.2814  -11.5715   29.1884 H   0  0  0  0  0  0  0  0  0  0  0  0
   -0.5165   -7.7665   31.6501 H   0  0  0  0  0  0  0  0  0  0  0  0
   -0.7489   -7.3225   29.9555 H   0  0  0  0  0  0  0  0  0  0  0  0
    1.8433   -8.5055   31.1714 H   0  0  0  0  0  0  0  0  0  0  0  0
    1.5968   -6.8002   30.7458 H   0  0  0  0  0  0  0  0  0  0  0  0
   -3.2510  -20.5753   27.4401 H   0  0  0  0  0  0  0  0  0  0  0  0
  1  2  1  0
  2  3  1  0
  3  4  2  0
  4  5  1  0
  5  6  1  0
  6  7  1  0
  7  8  1  0
  8  9  1  0
  9 10  2  0
  9 11  1  0
 11 12  2  3
 12 13  1  0
 13 14  2  0
 14 15  1  0
 15 16  2  0
 16 17  1  0
 17 18  2  0
 17 19  1  0
 19 20  1  0
 20 21  1  0
 21 22  1  0
  5 23  2  0
 23  2  1  0
 18 13  1  0
 22 16  1  0
  1 24  1  0
  1 25  1  0
  1 26  1  0
  3 27  1  0
  6 28  1  0
  6 29  1  0
  7 30  1  0
  7 31  1  0
  8 32  1  0
 11 33  1  0
 12 34  1  0
 14 35  1  0
 15 36  1  0
 18 37  1  0
 20 38  1  0
 20 39  1  0
 21 40  1  0
 21 41  1  0
 23 42  1  0
M  END
>  <Energy>  (1092) 
605.60511850550597

>  <compound_id>  (1092) 
48026

>  <target_id>  (1092) 
1

>  <reference_id>  (1092) 
13

>  <inspiration_ids>  (1092) 
[115, 13]

>  <energy_score>  (1092) 
548.0012891965775

>  <distance_score>  (1092) 
11.30511473606253

>  <path>  (1092) 
/opt/xchem-fragalysis-2/maxwin/BulkDock/SCRATCH/511024/C48026-P13/C48026-P13.minimised.mol

>  <scratch_subdir>  (1092) 
/opt/xchem-fragalysis-2/maxwin/BulkDock/SCRATCH/511024/C48026-P13

>  <fragmenstein_runtime>  (1092) 
28.298597812652588

>  <fragmenstein_outcome>  (1092) 
too moved

>  <fragmenstein_mode>  (1092) 
expansion

>  <fragmenstein_error>  (1092) 


$$$$
C48027-P115
     RDKit          3D

 47 49  0  0  0  0  0  0  0  0999 V2000
   -5.2794  -17.1004   32.6719 C   0  0  0  0  0  0  0  0  0  0  0  0
   -6.1757  -16.0848   32.5175 C   0  0  0  0  0  0  0  0  0  0  0  0
   -7.1484  -16.2558   33.4172 N   0  0  0  0  0  0  0  0  0  0  0  0
   -8.2429  -15.7402   32.9592 C   0  0  0  0  0  0  0  0  0  0  0  0
   -7.9285  -14.7353   32.0583 C   0  0  0  0  0  0  0  0  0  0  0  0
   -6.4538  -14.8878   31.2832 N   0  0  0  0  0  0  0  0  0  0  0  0
   -5.7917  -13.6988   30.4633 C   0  0  0  0  0  0  0  0  0  0  0  0
   -4.3676  -12.5201   30.0570 C   0  0  0  0  0  0  0  0  0  0  0  0
   -3.1011  -11.2679   30.5961 C   0  0  0  0  0  0  0  0  0  0  0  0
   -2.4377   -9.7356   31.4605 C   0  0  0  0  0  0  0  0  0  0  0  0
   -2.9476   -9.2479   32.4295 O   0  0  0  0  0  0  0  0  0  0  0  0
   -1.2955   -9.2732   30.6385 N   0  0  0  0  0  0  0  0  0  0  0  0
   -0.4646   -7.9772   30.6936 C   0  0  0  0  0  0  0  0  0  0  0  0
   -0.5543   -7.6398   29.1350 C   0  0  0  0  0  0  0  0  0  0  0  0
   -0.3858   -6.4846   31.1735 C   0  0  0  0  0  0  0  0  0  0  0  0
    0.7721   -5.7361   30.7467 C   0  0  0  0  0  0  0  0  0  0  0  0
    0.9509   -4.3482   30.7878 C   0  0  0  0  0  0  0  0  0  0  0  0
   -0.0719   -3.5825   31.2625 C   0  0  0  0  0  0  0  0  0  0  0  0
   -1.2051   -4.2413   31.7445 C   0  0  0  0  0  0  0  0  0  0  0  0
   -1.3078   -5.6838   31.8041 C   0  0  0  0  0  0  0  0  0  0  0  0
   -2.3219   -3.5055   32.0822 O   0  0  0  0  0  0  0  0  0  0  0  0
   -2.2656   -2.1496   31.6122 C   0  0  0  0  0  0  0  0  0  0  0  0
   -0.9191   -1.5436   31.9380 C   0  0  0  0  0  0  0  0  0  0  0  0
    0.0932   -2.2260   31.1991 O   0  0  0  0  0  0  0  0  0  0  0  0
   -5.7223  -18.0629   32.4392 H   0  0  0  0  0  0  0  0  0  0  0  0
   -5.4946  -17.1223   33.7086 H   0  0  0  0  0  0  0  0  0  0  0  0
   -4.2231  -16.8974   32.5912 H   0  0  0  0  0  0  0  0  0  0  0  0
   -9.2240  -16.0385   33.3145 H   0  0  0  0  0  0  0  0  0  0  0  0
   -8.6060  -14.4986   31.2997 H   0  0  0  0  0  0  0  0  0  0  0  0
   -6.2971  -13.8585   29.5128 H   0  0  0  0  0  0  0  0  0  0  0  0
   -6.2382  -13.0076   31.1716 H   0  0  0  0  0  0  0  0  0  0  0  0
   -3.6322  -13.2068   29.6766 H   0  0  0  0  0  0  0  0  0  0  0  0
   -4.8347  -12.1004   29.2010 H   0  0  0  0  0  0  0  0  0  0  0  0
   -3.8486  -11.1221   31.3605 H   0  0  0  0  0  0  0  0  0  0  0  0
   -2.1785  -11.7530   30.3915 H   0  0  0  0  0  0  0  0  0  0  0  0
   -1.0785   -9.9806   29.9396 H   0  0  0  0  0  0  0  0  0  0  0  0
    0.4670   -8.4187   31.0136 H   0  0  0  0  0  0  0  0  0  0  0  0
   -0.4064   -8.5331   28.5164 H   0  0  0  0  0  0  0  0  0  0  0  0
   -1.5348   -7.2094   28.9035 H   0  0  0  0  0  0  0  0  0  0  0  0
    0.1441   -6.8981   28.7429 H   0  0  0  0  0  0  0  0  0  0  0  0
    1.5972   -6.2543   30.2861 H   0  0  0  0  0  0  0  0  0  0  0  0
    1.8556   -3.8921   30.3971 H   0  0  0  0  0  0  0  0  0  0  0  0
   -2.1419   -6.1748   32.2784 H   0  0  0  0  0  0  0  0  0  0  0  0
   -2.4522   -2.1538   30.5328 H   0  0  0  0  0  0  0  0  0  0  0  0
   -3.0694   -1.5946   32.1050 H   0  0  0  0  0  0  0  0  0  0  0  0
   -0.8931   -0.4891   31.6465 H   0  0  0  0  0  0  0  0  0  0  0  0
   -0.6864   -1.6130   33.0077 H   0  0  0  0  0  0  0  0  0  0  0  0
  1  2  1  0
  2  3  2  0
  3  4  1  0
  4  5  2  0
  5  6  1  0
  6  7  1  0
  7  8  1  0
  8  9  1  0
  9 10  1  0
 10 11  2  0
 10 12  1  0
 12 13  1  0
 13 14  1  0
 13 15  1  0
 15 16  2  0
 16 17  1  0
 17 18  2  0
 18 19  1  0
 19 20  2  0
 19 21  1  0
 21 22  1  0
 22 23  1  0
 23 24  1  0
  6  2  1  0
 20 15  1  0
 24 18  1  0
  1 25  1  0
  1 26  1  0
  1 27  1  0
  4 28  1  0
  5 29  1  0
  7 30  1  0
  7 31  1  0
  8 32  1  0
  8 33  1  0
  9 34  1  0
  9 35  1  0
 12 36  1  0
 13 37  1  0
 14 38  1  0
 14 39  1  0
 14 40  1  0
 16 41  1  0
 17 42  1  0
 20 43  1  0
 22 44  1  0
 22 45  1  0
 23 46  1  0
 23 47  1  0
M  END
>  <Energy>  (1093) 
482.12567876851841

>  <compound_id>  (1093) 
48027

>  <target_id>  (1093) 
1

>  <reference_id>  (1093) 
115

>  <inspiration_ids>  (1093) 
[115, 13]

>  <energy_score>  (1093) 
428.311961123919

>  <distance_score>  (1093) 
8.502690363773961

>  <path>  (1093) 
/opt/xchem-fragalysis-2/maxwin/BulkDock/SCRATCH/511024/C48027-P115/C48027-P115.minimised.mol

>  <scratch_subdir>  (1093) 
/opt/xchem-fragalysis-2/maxwin/BulkDock/SCRATCH/511024/C48027-P115

>  <fragmenstein_runtime>  (1093) 
14.706259489059448

>  <fragmenstein_outcome>  (1093) 
too moved

>  <fragmenstein_mode>  (1093) 
expansion

>  <fragmenstein_error>  (1093) 


$$$$
C48027-P13
     RDKit          3D

 47 49  0  0  0  0  0  0  0  0999 V2000
  -10.4473  -21.4018   28.2749 C   0  0  0  0  0  0  0  0  0  0  0  0
   -8.9772  -20.1804   27.8950 C   0  0  0  0  0  0  0  0  0  0  0  0
   -7.8712  -21.0757   27.5928 N   0  0  0  0  0  0  0  0  0  0  0  0
   -7.4024  -20.3634   26.6601 C   0  0  0  0  0  0  0  0  0  0  0  0
   -8.5882  -19.7416   26.8899 C   0  0  0  0  0  0  0  0  0  0  0  0
   -8.7749  -18.4353   28.0525 N   0  0  0  0  0  0  0  0  0  0  0  0
   -8.2339  -16.5402   27.9939 C   0  0  0  0  0  0  0  0  0  0  0  0
   -7.4971  -14.6417   28.4809 C   0  0  0  0  0  0  0  0  0  0  0  0
   -6.1410  -14.1105   29.8947 C   0  0  0  0  0  0  0  0  0  0  0  0
   -4.9152  -12.6259   29.4238 C   0  0  0  0  0  0  0  0  0  0  0  0
   -5.5391  -11.7367   28.9933 O   0  0  0  0  0  0  0  0  0  0  0  0
   -3.1873  -12.6990   29.4796 N   0  0  0  0  0  0  0  0  0  0  0  0
   -2.0380  -11.6758   28.8644 C   0  0  0  0  0  0  0  0  0  0  0  0
   -1.9503  -11.9017   27.2826 C   0  0  0  0  0  0  0  0  0  0  0  0
   -0.8566  -10.6530   29.5727 C   0  0  0  0  0  0  0  0  0  0  0  0
    0.3963  -10.5513   28.9387 C   0  0  0  0  0  0  0  0  0  0  0  0
    1.3042   -9.4899   29.1916 C   0  0  0  0  0  0  0  0  0  0  0  0
    0.9567   -8.4557   30.0440 C   0  0  0  0  0  0  0  0  0  0  0  0
   -0.2036   -8.5926   30.7836 C   0  0  0  0  0  0  0  0  0  0  0  0
   -0.9866   -9.7676   30.6728 C   0  0  0  0  0  0  0  0  0  0  0  0
   -0.6992   -7.5827   31.5780 O   0  0  0  0  0  0  0  0  0  0  0  0
   -0.0915   -6.3156   31.2653 C   0  0  0  0  0  0  0  0  0  0  0  0
    1.4154   -6.4716   31.1487 C   0  0  0  0  0  0  0  0  0  0  0  0
    1.7445   -7.3370   30.0549 O   0  0  0  0  0  0  0  0  0  0  0  0
  -11.1759  -21.4306   27.4465 H   0  0  0  0  0  0  0  0  0  0  0  0
  -10.9008  -21.2341   29.2658 H   0  0  0  0  0  0  0  0  0  0  0  0
  -10.0319  -22.4229   28.3405 H   0  0  0  0  0  0  0  0  0  0  0  0
   -6.8086  -20.7736   25.8603 H   0  0  0  0  0  0  0  0  0  0  0  0
   -9.6868  -19.7588   26.3279 H   0  0  0  0  0  0  0  0  0  0  0  0
   -7.2637  -16.9255   28.3039 H   0  0  0  0  0  0  0  0  0  0  0  0
   -8.7271  -16.3555   27.0241 H   0  0  0  0  0  0  0  0  0  0  0  0
   -8.4374  -14.1933   28.8271 H   0  0  0  0  0  0  0  0  0  0  0  0
   -7.3991  -13.9157   27.6435 H   0  0  0  0  0  0  0  0  0  0  0  0
   -5.6548  -15.0162   30.2950 H   0  0  0  0  0  0  0  0  0  0  0  0
   -6.7097  -13.7882   30.7690 H   0  0  0  0  0  0  0  0  0  0  0  0
   -2.8970  -13.6181   29.8249 H   0  0  0  0  0  0  0  0  0  0  0  0
   -1.3036  -12.4788   28.8425 H   0  0  0  0  0  0  0  0  0  0  0  0
   -1.3252  -12.7712   27.0206 H   0  0  0  0  0  0  0  0  0  0  0  0
   -2.9179  -12.1281   26.8387 H   0  0  0  0  0  0  0  0  0  0  0  0
   -1.5086  -11.0663   26.7553 H   0  0  0  0  0  0  0  0  0  0  0  0
    0.6759  -11.2763   28.1729 H   0  0  0  0  0  0  0  0  0  0  0  0
    2.2341   -9.4386   28.6269 H   0  0  0  0  0  0  0  0  0  0  0  0
   -1.8088   -9.8229   31.3777 H   0  0  0  0  0  0  0  0  0  0  0  0
   -0.5255   -5.9395   30.3333 H   0  0  0  0  0  0  0  0  0  0  0  0
   -0.3447   -5.6197   32.0708 H   0  0  0  0  0  0  0  0  0  0  0  0
    1.8840   -5.5013   30.9572 H   0  0  0  0  0  0  0  0  0  0  0  0
    1.8495   -6.8884   32.0659 H   0  0  0  0  0  0  0  0  0  0  0  0
  1  2  1  0
  2  3  2  0
  3  4  1  0
  4  5  2  0
  5  6  1  0
  6  7  1  0
  7  8  1  0
  8  9  1  0
  9 10  1  0
 10 11  2  0
 10 12  1  0
 12 13  1  0
 13 14  1  0
 13 15  1  0
 15 16  2  0
 16 17  1  0
 17 18  2  0
 18 19  1  0
 19 20  2  0
 19 21  1  0
 21 22  1  0
 22 23  1  0
 23 24  1  0
  6  2  1  0
 20 15  1  0
 24 18  1  0
  1 25  1  0
  1 26  1  0
  1 27  1  0
  4 28  1  0
  5 29  1  0
  7 30  1  0
  7 31  1  0
  8 32  1  0
  8 33  1  0
  9 34  1  0
  9 35  1  0
 12 36  1  0
 13 37  1  0
 14 38  1  0
 14 39  1  0
 14 40  1  0
 16 41  1  0
 17 42  1  0
 20 43  1  0
 22 44  1  0
 22 45  1  0
 23 46  1  0
 23 47  1  0
M  END
>  <Energy>  (1094) 
975.09784078453356

>  <compound_id>  (1094) 
48027

>  <target_id>  (1094) 
1

>  <reference_id>  (1094) 
13

>  <inspiration_ids>  (1094) 
[115, 13]

>  <energy_score>  (1094) 
921.2841231399419

>  <distance_score>  (1094) 
10.035619272284341

>  <path>  (1094) 
/opt/xchem-fragalysis-2/maxwin/BulkDock/SCRATCH/511024/C48027-P13/C48027-P13.minimised.mol

>  <scratch_subdir>  (1094) 
/opt/xchem-fragalysis-2/maxwin/BulkDock/SCRATCH/511024/C48027-P13

>  <fragmenstein_runtime>  (1094) 
36.69563627243042

>  <fragmenstein_outcome>  (1094) 
too moved

>  <fragmenstein_mode>  (1094) 
expansion

>  <fragmenstein_error>  (1094) 


$$$$
C48028-P115
     RDKit          3D

 47 49  0  0  0  0  0  0  0  0999 V2000
    1.8276  -15.4465   31.1199 C   0  0  0  0  0  0  0  0  0  0  0  0
    0.7090  -15.3707   32.0964 C   0  0  0  0  0  0  0  0  0  0  0  0
   -0.0295  -16.3978   32.4623 N   0  0  0  0  0  0  0  0  0  0  0  0
   -0.8573  -15.9263   33.4314 C   0  0  0  0  0  0  0  0  0  0  0  0
   -0.6144  -14.5949   33.6819 C   0  0  0  0  0  0  0  0  0  0  0  0
    0.3574  -14.2167   32.7911 N   0  0  0  0  0  0  0  0  0  0  0  0
    1.0844  -12.9391   32.7197 C   0  0  0  0  0  0  0  0  0  0  0  0
    0.4134  -11.5815   33.1045 C   0  0  0  0  0  0  0  0  0  0  0  0
    0.2839  -10.5434   31.9373 C   0  0  0  0  0  0  0  0  0  0  0  0
   -0.5980   -9.2885   32.2462 C   0  0  0  0  0  0  0  0  0  0  0  0
   -1.3360   -9.3259   33.1901 O   0  0  0  0  0  0  0  0  0  0  0  0
   -0.3484   -8.2305   31.2797 N   0  0  0  0  0  0  0  0  0  0  0  0
   -0.8441   -6.8550   31.2146 C   0  0  0  0  0  0  0  0  0  0  0  0
    0.0223   -5.8696   30.3769 C   0  0  0  0  0  0  0  0  0  0  0  0
   -0.3440   -4.3865   30.3744 C   0  0  0  0  0  0  0  0  0  0  0  0
   -0.8534   -3.7264   31.5017 C   0  0  0  0  0  0  0  0  0  0  0  0
   -1.1851   -2.3613   31.4557 C   0  0  0  0  0  0  0  0  0  0  0  0
   -0.9896   -1.6228   30.2929 C   0  0  0  0  0  0  0  0  0  0  0  0
   -0.4152   -2.2402   29.1848 C   0  0  0  0  0  0  0  0  0  0  0  0
   -0.1113   -3.6100   29.2192 C   0  0  0  0  0  0  0  0  0  0  0  0
   -0.1165   -1.5618   28.0328 O   0  0  0  0  0  0  0  0  0  0  0  0
   -0.1619   -0.1427   28.2174 C   0  0  0  0  0  0  0  0  0  0  0  0
   -1.4039    0.2483   28.9932 C   0  0  0  0  0  0  0  0  0  0  0  0
   -1.3654   -0.3030   30.3157 O   0  0  0  0  0  0  0  0  0  0  0  0
    1.6489  -14.7985   30.2594 H   0  0  0  0  0  0  0  0  0  0  0  0
    2.7713  -15.1548   31.5909 H   0  0  0  0  0  0  0  0  0  0  0  0
    1.9403  -16.4705   30.7494 H   0  0  0  0  0  0  0  0  0  0  0  0
   -1.5567  -16.5837   33.9155 H   0  0  0  0  0  0  0  0  0  0  0  0
   -1.0494  -13.9137   34.3993 H   0  0  0  0  0  0  0  0  0  0  0  0
    1.9436  -13.0906   33.3867 H   0  0  0  0  0  0  0  0  0  0  0  0
    1.4837  -12.8579   31.7034 H   0  0  0  0  0  0  0  0  0  0  0  0
    1.0578  -11.1038   33.8560 H   0  0  0  0  0  0  0  0  0  0  0  0
   -0.5330  -11.7371   33.6244 H   0  0  0  0  0  0  0  0  0  0  0  0
    1.2905  -10.2269   31.6458 H   0  0  0  0  0  0  0  0  0  0  0  0
   -0.1736  -11.0115   31.0682 H   0  0  0  0  0  0  0  0  0  0  0  0
    0.4124   -8.5190   30.6562 H   0  0  0  0  0  0  0  0  0  0  0  0
   -1.8506   -6.9211   30.8051 H   0  0  0  0  0  0  0  0  0  0  0  0
   -0.9409   -6.5126   32.2496 H   0  0  0  0  0  0  0  0  0  0  0  0
    1.0640   -5.9315   30.7097 H   0  0  0  0  0  0  0  0  0  0  0  0
    0.0046   -6.2311   29.3407 H   0  0  0  0  0  0  0  0  0  0  0  0
   -1.0119   -4.2553   32.4397 H   0  0  0  0  0  0  0  0  0  0  0  0
   -1.6008   -1.8794   32.3375 H   0  0  0  0  0  0  0  0  0  0  0  0
    0.3177   -4.0631   28.3279 H   0  0  0  0  0  0  0  0  0  0  0  0
   -0.1719    0.3264   27.2302 H   0  0  0  0  0  0  0  0  0  0  0  0
    0.7528    0.1705   28.7355 H   0  0  0  0  0  0  0  0  0  0  0  0
   -2.3076   -0.1087   28.4883 H   0  0  0  0  0  0  0  0  0  0  0  0
   -1.4695    1.3363   29.0877 H   0  0  0  0  0  0  0  0  0  0  0  0
  1  2  1  0
  2  3  2  0
  3  4  1  0
  4  5  2  0
  5  6  1  0
  6  7  1  0
  7  8  1  0
  8  9  1  0
  9 10  1  0
 10 11  2  0
 10 12  1  0
 12 13  1  0
 13 14  1  0
 14 15  1  0
 15 16  2  0
 16 17  1  0
 17 18  2  0
 18 19  1  0
 19 20  2  0
 19 21  1  0
 21 22  1  0
 22 23  1  0
 23 24  1  0
  6  2  1  0
 20 15  1  0
 24 18  1  0
  1 25  1  0
  1 26  1  0
  1 27  1  0
  4 28  1  0
  5 29  1  0
  7 30  1  0
  7 31  1  0
  8 32  1  0
  8 33  1  0
  9 34  1  0
  9 35  1  0
 12 36  1  0
 13 37  1  0
 13 38  1  0
 14 39  1  0
 14 40  1  0
 16 41  1  0
 17 42  1  0
 20 43  1  0
 22 44  1  0
 22 45  1  0
 23 46  1  0
 23 47  1  0
M  END
>  <Energy>  (1095) 
53.947523109180494

>  <compound_id>  (1095) 
48028

>  <target_id>  (1095) 
1

>  <reference_id>  (1095) 
115

>  <inspiration_ids>  (1095) 
[115, 13]

>  <energy_score>  (1095) 
-3.4549900192844234

>  <distance_score>  (1095) 
8.992707352309274

>  <path>  (1095) 
/opt/xchem-fragalysis-2/maxwin/BulkDock/SCRATCH/511024/C48028-P115/C48028-P115.minimised.mol

>  <scratch_subdir>  (1095) 
/opt/xchem-fragalysis-2/maxwin/BulkDock/SCRATCH/511024/C48028-P115

>  <fragmenstein_runtime>  (1095) 
24.673261880874634

>  <fragmenstein_outcome>  (1095) 
too moved

>  <fragmenstein_mode>  (1095) 
expansion

>  <fragmenstein_error>  (1095) 


$$$$
C48028-P13
     RDKit          3D

 47 49  0  0  0  0  0  0  0  0999 V2000
    2.1272  -14.6086   28.7857 C   0  0  0  0  0  0  0  0  0  0  0  0
    0.7687  -14.8356   28.2314 C   0  0  0  0  0  0  0  0  0  0  0  0
    0.2308  -16.0302   28.0493 N   0  0  0  0  0  0  0  0  0  0  0  0
   -0.9568  -15.8247   27.4060 C   0  0  0  0  0  0  0  0  0  0  0  0
   -1.1503  -14.4814   27.2112 C   0  0  0  0  0  0  0  0  0  0  0  0
   -0.0804  -13.8369   27.8045 N   0  0  0  0  0  0  0  0  0  0  0  0
    0.0438  -12.3724   27.8114 C   0  0  0  0  0  0  0  0  0  0  0  0
    0.9999  -11.5887   28.7737 C   0  0  0  0  0  0  0  0  0  0  0  0
    0.5031  -10.1335   29.0618 C   0  0  0  0  0  0  0  0  0  0  0  0
    1.5021   -9.1485   29.7609 C   0  0  0  0  0  0  0  0  0  0  0  0
    2.6544   -9.4522   29.8710 O   0  0  0  0  0  0  0  0  0  0  0  0
    0.8003   -7.9248   30.1386 N   0  0  0  0  0  0  0  0  0  0  0  0
    1.3123   -6.6297   30.6902 C   0  0  0  0  0  0  0  0  0  0  0  0
    0.8206   -5.4620   29.8057 C   0  0  0  0  0  0  0  0  0  0  0  0
    0.8552   -3.9677   30.0287 C   0  0  0  0  0  0  0  0  0  0  0  0
    1.9552   -3.2820   30.5427 C   0  0  0  0  0  0  0  0  0  0  0  0
    2.0154   -1.8779   30.4579 C   0  0  0  0  0  0  0  0  0  0  0  0
    0.9840   -1.1466   29.8611 C   0  0  0  0  0  0  0  0  0  0  0  0
   -0.1239   -1.8147   29.3519 C   0  0  0  0  0  0  0  0  0  0  0  0
   -0.1878   -3.2047   29.4436 C   0  0  0  0  0  0  0  0  0  0  0  0
   -1.1715   -1.1836   28.7331 O   0  0  0  0  0  0  0  0  0  0  0  0
   -0.8017    0.1306   28.3013 C   0  0  0  0  0  0  0  0  0  0  0  0
   -0.0868    0.8627   29.4258 C   0  0  0  0  0  0  0  0  0  0  0  0
    1.1407    0.2132   29.7790 O   0  0  0  0  0  0  0  0  0  0  0  0
    2.0738  -14.2296   29.8096 H   0  0  0  0  0  0  0  0  0  0  0  0
    2.6871  -15.5494   28.8096 H   0  0  0  0  0  0  0  0  0  0  0  0
    2.6935  -13.9054   28.1685 H   0  0  0  0  0  0  0  0  0  0  0  0
   -1.5915  -16.6508   27.1083 H   0  0  0  0  0  0  0  0  0  0  0  0
   -1.9296  -13.9302   26.7103 H   0  0  0  0  0  0  0  0  0  0  0  0
    0.2938  -12.0993   26.7782 H   0  0  0  0  0  0  0  0  0  0  0  0
   -0.9777  -12.0134   27.9951 H   0  0  0  0  0  0  0  0  0  0  0  0
    1.9982  -11.5512   28.3223 H   0  0  0  0  0  0  0  0  0  0  0  0
    1.1134  -12.1039   29.7307 H   0  0  0  0  0  0  0  0  0  0  0  0
    0.2330   -9.6682   28.1072 H   0  0  0  0  0  0  0  0  0  0  0  0
   -0.3985  -10.1978   29.6813 H   0  0  0  0  0  0  0  0  0  0  0  0
   -0.1903   -8.0465   29.9734 H   0  0  0  0  0  0  0  0  0  0  0  0
    2.4043   -6.6714   30.7354 H   0  0  0  0  0  0  0  0  0  0  0  0
    0.9137   -6.5365   31.7047 H   0  0  0  0  0  0  0  0  0  0  0  0
    1.3794   -5.5740   28.8707 H   0  0  0  0  0  0  0  0  0  0  0  0
   -0.2373   -5.6914   29.6338 H   0  0  0  0  0  0  0  0  0  0  0  0
    2.8021   -3.8219   30.9593 H   0  0  0  0  0  0  0  0  0  0  0  0
    2.8886   -1.3537   30.8393 H   0  0  0  0  0  0  0  0  0  0  0  0
   -1.0386   -3.6967   28.9744 H   0  0  0  0  0  0  0  0  0  0  0  0
   -1.7178    0.6607   28.0226 H   0  0  0  0  0  0  0  0  0  0  0  0
   -0.1679    0.0442   27.4110 H   0  0  0  0  0  0  0  0  0  0  0  0
   -0.7087    0.9036   30.3269 H   0  0  0  0  0  0  0  0  0  0  0  0
    0.1524    1.8866   29.1229 H   0  0  0  0  0  0  0  0  0  0  0  0
  1  2  1  0
  2  3  2  0
  3  4  1  0
  4  5  2  0
  5  6  1  0
  6  7  1  0
  7  8  1  0
  8  9  1  0
  9 10  1  0
 10 11  2  0
 10 12  1  0
 12 13  1  0
 13 14  1  0
 14 15  1  0
 15 16  2  0
 16 17  1  0
 17 18  2  0
 18 19  1  0
 19 20  2  0
 19 21  1  0
 21 22  1  0
 22 23  1  0
 23 24  1  0
  6  2  1  0
 20 15  1  0
 24 18  1  0
  1 25  1  0
  1 26  1  0
  1 27  1  0
  4 28  1  0
  5 29  1  0
  7 30  1  0
  7 31  1  0
  8 32  1  0
  8 33  1  0
  9 34  1  0
  9 35  1  0
 12 36  1  0
 13 37  1  0
 13 38  1  0
 14 39  1  0
 14 40  1  0
 16 41  1  0
 17 42  1  0
 20 43  1  0
 22 44  1  0
 22 45  1  0
 23 46  1  0
 23 47  1  0
M  END
>  <Energy>  (1096) 
61.550377776772322

>  <compound_id>  (1096) 
48028

>  <target_id>  (1096) 
1

>  <reference_id>  (1096) 
13

>  <inspiration_ids>  (1096) 
[115, 13]

>  <energy_score>  (1096) 
4.1478646483062676

>  <distance_score>  (1096) 
8.990400639923031

>  <path>  (1096) 
/opt/xchem-fragalysis-2/maxwin/BulkDock/SCRATCH/511024/C48028-P13/C48028-P13.minimised.mol

>  <scratch_subdir>  (1096) 
/opt/xchem-fragalysis-2/maxwin/BulkDock/SCRATCH/511024/C48028-P13

>  <fragmenstein_runtime>  (1096) 
33.86867046356201

>  <fragmenstein_outcome>  (1096) 
too moved

>  <fragmenstein_mode>  (1096) 
expansion

>  <fragmenstein_error>  (1096) 


$$$$
C59258-P70
     RDKit          3D

 43 45  0  0  0  0  0  0  0  0999 V2000
   -4.3650  -15.8339   35.8591 O   0  0  0  0  0  0  0  0  0  0  0  0
   -4.4962  -16.3172   34.7666 C   0  0  0  0  0  0  0  0  0  0  0  0
   -5.1974  -17.6978   34.6369 C   0  0  0  0  0  0  0  0  0  0  0  0
   -6.5536  -17.6371   35.2867 C   0  0  0  0  0  0  0  0  0  0  0  0
   -6.8388  -17.6511   36.6484 C   0  0  0  0  0  0  0  0  0  0  0  0
   -8.1601  -17.3477   36.7283 N   0  0  0  0  0  0  0  0  0  0  0  0
   -9.0680  -17.1119   37.7361 C   0  0  0  0  0  0  0  0  0  0  0  0
  -10.2912  -16.8508   37.2455 C   0  0  0  0  0  0  0  0  0  0  0  0
  -10.3432  -16.8910   35.4761 S   0  0  0  0  0  0  0  0  0  0  0  0
   -8.6369  -17.2562   35.4580 C   0  0  0  0  0  0  0  0  0  0  0  0
   -7.7206  -17.4584   34.5466 N   0  0  0  0  0  0  0  0  0  0  0  0
   -4.1881  -15.7875   33.4596 N   0  0  0  0  0  0  0  0  0  0  0  0
   -3.6209  -14.2107   32.9653 C   0  0  0  0  0  0  0  0  0  0  0  0
   -4.4275  -12.7974   31.1788 C   0  0  0  0  0  0  0  0  0  0  0  0
   -3.5546  -10.9447   31.2900 C   0  0  0  0  0  0  0  0  0  0  0  0
   -4.2838   -9.9319   32.1683 C   0  0  0  0  0  0  0  0  0  0  0  0
   -2.8650   -9.5838   32.8766 C   0  0  0  0  0  0  0  0  0  0  0  0
   -1.4589   -9.0514   31.6530 N   0  0  0  0  0  0  0  0  0  0  0  0
   -1.0425   -7.5130   31.4174 C   0  0  0  0  0  0  0  0  0  0  0  0
   -1.5024   -6.5148   31.7826 O   0  0  0  0  0  0  0  0  0  0  0  0
    0.1415   -7.5395   30.4351 C   0  0  0  0  0  0  0  0  0  0  0  0
    0.1353   -6.3511   29.6298 O   0  0  0  0  0  0  0  0  0  0  0  0
   -2.4892   -9.6789   32.2196 C   0  0  0  0  0  0  0  0  0  0  0  0
   -4.5668  -18.4429   35.1345 H   0  0  0  0  0  0  0  0  0  0  0  0
   -5.3121  -18.0074   33.5937 H   0  0  0  0  0  0  0  0  0  0  0  0
   -6.2034  -17.7545   37.5160 H   0  0  0  0  0  0  0  0  0  0  0  0
   -8.7689  -17.1554   38.7713 H   0  0  0  0  0  0  0  0  0  0  0  0
  -11.1764  -16.6430   37.8316 H   0  0  0  0  0  0  0  0  0  0  0  0
   -4.3522  -16.5065   32.7648 H   0  0  0  0  0  0  0  0  0  0  0  0
   -3.8105  -13.8286   34.0550 H   0  0  0  0  0  0  0  0  0  0  0  0
   -2.5127  -14.5915   32.9511 H   0  0  0  0  0  0  0  0  0  0  0  0
   -4.2739  -13.0125   30.0516 H   0  0  0  0  0  0  0  0  0  0  0  0
   -5.5108  -12.4296   31.0981 H   0  0  0  0  0  0  0  0  0  0  0  0
   -2.7943  -11.0084   30.4973 H   0  0  0  0  0  0  0  0  0  0  0  0
   -4.9971  -10.2409   32.9209 H   0  0  0  0  0  0  0  0  0  0  0  0
   -4.6736   -9.0621   31.6494 H   0  0  0  0  0  0  0  0  0  0  0  0
   -3.0770   -8.6116   33.5529 H   0  0  0  0  0  0  0  0  0  0  0  0
   -2.4721  -10.2036   33.8971 H   0  0  0  0  0  0  0  0  0  0  0  0
    1.0775   -7.5827   30.9980 H   0  0  0  0  0  0  0  0  0  0  0  0
    0.0684   -8.3960   29.7605 H   0  0  0  0  0  0  0  0  0  0  0  0
    0.0332   -5.6054   30.2515 H   0  0  0  0  0  0  0  0  0  0  0  0
   -1.6637  -10.5646   32.1327 H   0  0  0  0  0  0  0  0  0  0  0  0
   -2.8781   -8.9174   31.2792 H   0  0  0  0  0  0  0  0  0  0  0  0
  1  2  2  0
  2  3  1  0
  3  4  1  0
  4  5  2  0
  5  6  1  0
  6  7  1  0
  7  8  2  0
  8  9  1  0
  9 10  1  0
 10 11  2  0
  2 12  1  0
 12 13  1  0
 13 14  1  0
 14 15  1  0
 15 16  1  0
 16 17  1  0
 17 18  1  0
 18 19  1  0
 19 20  2  0
 19 21  1  0
 21 22  1  0
 18 23  1  0
 11  4  1  0
 23 15  1  0
 10  6  1  0
  3 24  1  0
  3 25  1  0
  5 26  1  0
  7 27  1  0
  8 28  1  0
 12 29  1  0
 13 30  1  0
 13 31  1  0
 14 32  1  0
 14 33  1  0
 15 34  1  0
 16 35  1  0
 16 36  1  0
 17 37  1  0
 17 38  1  0
 21 39  1  0
 21 40  1  0
 22 41  1  0
 23 42  1  0
 23 43  1  0
M  END
>  <Energy>  (1097) 
1302.6339246833195

>  <compound_id>  (1097) 
59258

>  <target_id>  (1097) 
1

>  <reference_id>  (1097) 
70

>  <inspiration_ids>  (1097) 
[70, 52]

>  <energy_score>  (1097) 
1193.344208028976

>  <distance_score>  (1097) 
9.4664171893859

>  <path>  (1097) 
/opt/xchem-fragalysis-2/maxwin/BulkDock/SCRATCH/511024/C59258-P70/C59258-P70.minimised.mol

>  <scratch_subdir>  (1097) 
/opt/xchem-fragalysis-2/maxwin/BulkDock/SCRATCH/511024/C59258-P70

>  <fragmenstein_runtime>  (1097) 
24.69732356071472

>  <fragmenstein_outcome>  (1097) 
too moved

>  <fragmenstein_mode>  (1097) 
expansion

>  <fragmenstein_error>  (1097) 


$$$$
C59258-P52
     RDKit          3D

 43 45  0  0  0  0  0  0  0  0999 V2000
   -6.4605  -14.6299   32.7434 O   0  0  0  0  0  0  0  0  0  0  0  0
   -7.5303  -14.0623   32.5900 C   0  0  0  0  0  0  0  0  0  0  0  0
   -8.7248  -14.6222   33.3947 C   0  0  0  0  0  0  0  0  0  0  0  0
   -9.4238  -14.8905   34.7375 C   0  0  0  0  0  0  0  0  0  0  0  0
   -8.9993  -14.7076   36.0594 C   0  0  0  0  0  0  0  0  0  0  0  0
  -10.1308  -14.8042   36.8162 N   0  0  0  0  0  0  0  0  0  0  0  0
  -10.4719  -14.6388   38.1405 C   0  0  0  0  0  0  0  0  0  0  0  0
  -11.7811  -14.8697   38.3437 C   0  0  0  0  0  0  0  0  0  0  0  0
  -12.6452  -15.2967   36.8546 S   0  0  0  0  0  0  0  0  0  0  0  0
  -11.1517  -15.1403   35.9887 C   0  0  0  0  0  0  0  0  0  0  0  0
  -10.7943  -15.1856   34.7435 N   0  0  0  0  0  0  0  0  0  0  0  0
   -7.9432  -12.8355   31.5695 N   0  0  0  0  0  0  0  0  0  0  0  0
   -6.9006  -11.8683   30.3386 C   0  0  0  0  0  0  0  0  0  0  0  0
   -5.9883  -10.0453   30.1705 C   0  0  0  0  0  0  0  0  0  0  0  0
   -5.2756   -8.3847   30.9235 C   0  0  0  0  0  0  0  0  0  0  0  0
   -3.7680   -8.0703   30.6721 C   0  0  0  0  0  0  0  0  0  0  0  0
   -4.0443   -6.5760   30.6308 C   0  0  0  0  0  0  0  0  0  0  0  0
   -3.2067   -5.9237   31.4397 N   0  0  0  0  0  0  0  0  0  0  0  0
   -2.1505   -4.7975   30.8703 C   0  0  0  0  0  0  0  0  0  0  0  0
   -2.0124   -4.3133   29.8339 O   0  0  0  0  0  0  0  0  0  0  0  0
   -1.3625   -4.3914   32.1238 C   0  0  0  0  0  0  0  0  0  0  0  0
   -0.4214   -3.3623   31.8263 O   0  0  0  0  0  0  0  0  0  0  0  0
   -4.7894   -6.8327   30.7482 C   0  0  0  0  0  0  0  0  0  0  0  0
   -8.1410  -14.0128   34.1144 H   0  0  0  0  0  0  0  0  0  0  0  0
   -9.5696  -14.2331   32.8240 H   0  0  0  0  0  0  0  0  0  0  0  0
   -8.0341  -14.4670   36.4751 H   0  0  0  0  0  0  0  0  0  0  0  0
   -9.7313  -14.3689   38.8760 H   0  0  0  0  0  0  0  0  0  0  0  0
  -12.2927  -14.8163   39.2955 H   0  0  0  0  0  0  0  0  0  0  0  0
   -8.8951  -12.5458   31.7580 H   0  0  0  0  0  0  0  0  0  0  0  0
   -7.2918  -12.2338   29.3921 H   0  0  0  0  0  0  0  0  0  0  0  0
   -6.1603  -12.6047   30.0005 H   0  0  0  0  0  0  0  0  0  0  0  0
   -6.6827   -9.3724   29.6799 H   0  0  0  0  0  0  0  0  0  0  0  0
   -5.2257  -10.3587   29.4363 H   0  0  0  0  0  0  0  0  0  0  0  0
   -5.9107   -8.2342   31.7923 H   0  0  0  0  0  0  0  0  0  0  0  0
   -2.9964   -8.1292   31.4784 H   0  0  0  0  0  0  0  0  0  0  0  0
   -3.3171   -8.5225   29.7789 H   0  0  0  0  0  0  0  0  0  0  0  0
   -3.9987   -5.8562   29.5930 H   0  0  0  0  0  0  0  0  0  0  0  0
   -3.0192   -6.6812   30.0199 H   0  0  0  0  0  0  0  0  0  0  0  0
   -0.8445   -5.2566   32.5459 H   0  0  0  0  0  0  0  0  0  0  0  0
   -2.0635   -3.9959   32.8649 H   0  0  0  0  0  0  0  0  0  0  0  0
    0.2349   -3.8005   31.2402 H   0  0  0  0  0  0  0  0  0  0  0  0
   -5.2661   -6.6673   31.9277 H   0  0  0  0  0  0  0  0  0  0  0  0
   -5.7468   -6.2392   30.4569 H   0  0  0  0  0  0  0  0  0  0  0  0
  1  2  2  0
  2  3  1  0
  3  4  1  0
  4  5  2  0
  5  6  1  0
  6  7  1  0
  7  8  2  0
  8  9  1  0
  9 10  1  0
 10 11  2  0
  2 12  1  0
 12 13  1  0
 13 14  1  0
 14 15  1  0
 15 16  1  0
 16 17  1  0
 17 18  1  0
 18 19  1  0
 19 20  2  0
 19 21  1  0
 21 22  1  0
 18 23  1  0
 11  4  1  0
 23 15  1  0
 10  6  1  0
  3 24  1  0
  3 25  1  0
  5 26  1  0
  7 27  1  0
  8 28  1  0
 12 29  1  0
 13 30  1  0
 13 31  1  0
 14 32  1  0
 14 33  1  0
 15 34  1  0
 16 35  1  0
 16 36  1  0
 17 37  1  0
 17 38  1  0
 21 39  1  0
 21 40  1  0
 22 41  1  0
 23 42  1  0
 23 43  1  0
M  END
>  <Energy>  (1098) 
1198.3385511190506

>  <compound_id>  (1098) 
59258

>  <target_id>  (1098) 
1

>  <reference_id>  (1098) 
52

>  <inspiration_ids>  (1098) 
[70, 52]

>  <energy_score>  (1098) 
1089.048834464708

>  <distance_score>  (1098) 
8.983172733537307

>  <path>  (1098) 
/opt/xchem-fragalysis-2/maxwin/BulkDock/SCRATCH/511024/C59258-P52/C59258-P52.minimised.mol

>  <scratch_subdir>  (1098) 
/opt/xchem-fragalysis-2/maxwin/BulkDock/SCRATCH/511024/C59258-P52

>  <fragmenstein_runtime>  (1098) 
22.597230911254883

>  <fragmenstein_outcome>  (1098) 
too moved

>  <fragmenstein_mode>  (1098) 
expansion

>  <fragmenstein_error>  (1098) 


$$$$
C59267-P70
     RDKit          3D

 37 39  0  0  0  0  0  0  0  0999 V2000
   -1.9332  -16.4328   25.4353 O   0  0  0  0  0  0  0  0  0  0  0  0
   -2.3228  -16.6509   26.5529 C   0  0  0  0  0  0  0  0  0  0  0  0
   -1.7733  -15.6946   27.6459 C   0  0  0  0  0  0  0  0  0  0  0  0
   -2.4577  -14.6729   28.8162 C   0  0  0  0  0  0  0  0  0  0  0  0
   -2.8797  -12.7207   29.2300 C   0  0  0  0  0  0  0  0  0  0  0  0
   -3.9594  -12.0914   30.1671 C   0  0  0  0  0  0  0  0  0  0  0  0
   -3.2207  -10.6643   31.2300 C   0  0  0  0  0  0  0  0  0  0  0  0
   -2.0351  -10.2035   30.6054 N   0  0  0  0  0  0  0  0  0  0  0  0
   -1.7015  -11.3579   29.7795 C   0  0  0  0  0  0  0  0  0  0  0  0
   -3.2761  -17.6387   27.0512 N   0  0  0  0  0  0  0  0  0  0  0  0
   -4.2281  -18.7179   26.2526 S   0  0  0  0  0  0  0  0  0  0  0  0
   -5.5774  -18.5588   26.7503 O   0  0  0  0  0  0  0  0  0  0  0  0
   -3.9589  -18.6433   24.8352 O   0  0  0  0  0  0  0  0  0  0  0  0
   -3.8905  -20.3729   26.6350 C   0  0  0  0  0  0  0  0  0  0  0  0
   -3.0671  -21.0498   27.5220 C   0  0  0  0  0  0  0  0  0  0  0  0
   -3.1351  -22.4207   27.3592 N   0  0  0  0  0  0  0  0  0  0  0  0
   -4.0025  -22.5592   26.3968 C   0  0  0  0  0  0  0  0  0  0  0  0
   -4.7046  -23.9191   25.5753 S   0  0  0  0  0  0  0  0  0  0  0  0
   -5.7006  -22.7932   24.6421 C   0  0  0  0  0  0  0  0  0  0  0  0
   -5.4763  -21.5074   24.9622 C   0  0  0  0  0  0  0  0  0  0  0  0
   -4.5199  -21.3828   25.9509 N   0  0  0  0  0  0  0  0  0  0  0  0
   -0.9708  -15.2036   27.1133 H   0  0  0  0  0  0  0  0  0  0  0  0
   -1.2326  -16.4406   28.2622 H   0  0  0  0  0  0  0  0  0  0  0  0
   -1.5402  -14.9599   29.3849 H   0  0  0  0  0  0  0  0  0  0  0  0
   -3.2259  -15.3230   29.2271 H   0  0  0  0  0  0  0  0  0  0  0  0
   -3.2457  -12.3429   28.2829 H   0  0  0  0  0  0  0  0  0  0  0  0
   -4.7755  -11.9748   29.4511 H   0  0  0  0  0  0  0  0  0  0  0  0
   -4.7409  -12.5959   30.6959 H   0  0  0  0  0  0  0  0  0  0  0  0
   -2.6950  -10.7832   32.1675 H   0  0  0  0  0  0  0  0  0  0  0  0
   -3.9348   -9.8975   31.5945 H   0  0  0  0  0  0  0  0  0  0  0  0
   -1.3542   -9.8731   31.2782 H   0  0  0  0  0  0  0  0  0  0  0  0
   -1.2089  -10.8890   28.9144 H   0  0  0  0  0  0  0  0  0  0  0  0
   -0.9782  -11.8523   30.3942 H   0  0  0  0  0  0  0  0  0  0  0  0
   -3.3025  -17.5919   28.0559 H   0  0  0  0  0  0  0  0  0  0  0  0
   -2.3981  -20.6218   28.2570 H   0  0  0  0  0  0  0  0  0  0  0  0
   -6.3995  -23.1428   23.8934 H   0  0  0  0  0  0  0  0  0  0  0  0
   -5.9488  -20.6391   24.5268 H   0  0  0  0  0  0  0  0  0  0  0  0
  1  2  2  0
  2  3  1  0
  3  4  1  0
  4  5  1  0
  5  6  1  0
  6  7  1  0
  7  8  1  0
  8  9  1  0
  2 10  1  0
 10 11  1  0
 11 12  2  0
 11 13  2  0
 11 14  1  0
 14 15  2  0
 15 16  1  0
 16 17  2  0
 17 18  1  0
 18 19  1  0
 19 20  2  0
 20 21  1  0
  9  5  1  0
 21 14  1  0
 21 17  1  0
  3 22  1  0
  3 23  1  0
  4 24  1  0
  4 25  1  0
  5 26  1  0
  6 27  1  0
  6 28  1  0
  7 29  1  0
  7 30  1  0
  8 31  1  0
  9 32  1  0
  9 33  1  0
 10 34  1  0
 15 35  1  0
 19 36  1  0
 20 37  1  0
M  END
>  <Energy>  (1099) 
134.79947067082477

>  <compound_id>  (1099) 
59267

>  <target_id>  (1099) 
1

>  <reference_id>  (1099) 
70

>  <inspiration_ids>  (1099) 
[70, 52]

>  <energy_score>  (1099) 
214.1479052061543

>  <distance_score>  (1099) 
11.420091781335717

>  <path>  (1099) 
/opt/xchem-fragalysis-2/maxwin/BulkDock/SCRATCH/511024/C59267-P70/C59267-P70.minimised.mol

>  <scratch_subdir>  (1099) 
/opt/xchem-fragalysis-2/maxwin/BulkDock/SCRATCH/511024/C59267-P70

>  <fragmenstein_runtime>  (1099) 
22.656696319580078

>  <fragmenstein_outcome>  (1099) 
too moved

>  <fragmenstein_mode>  (1099) 
expansion

>  <fragmenstein_error>  (1099) 


$$$$
C59267-P52
     RDKit          3D

 37 39  0  0  0  0  0  0  0  0999 V2000
   -9.3218  -12.7672   31.5690 O   0  0  0  0  0  0  0  0  0  0  0  0
   -8.1411  -12.9668   31.6869 C   0  0  0  0  0  0  0  0  0  0  0  0
   -7.0003  -11.8211   30.5042 C   0  0  0  0  0  0  0  0  0  0  0  0
   -6.1605   -9.9523   30.3121 C   0  0  0  0  0  0  0  0  0  0  0  0
   -5.1784   -8.3114   30.8774 C   0  0  0  0  0  0  0  0  0  0  0  0
   -3.4776   -7.9763   30.5551 C   0  0  0  0  0  0  0  0  0  0  0  0
   -3.0427   -6.5556   30.7424 C   0  0  0  0  0  0  0  0  0  0  0  0
   -3.8835   -6.3930   31.8786 N   0  0  0  0  0  0  0  0  0  0  0  0
   -5.2168   -6.8643   31.4025 C   0  0  0  0  0  0  0  0  0  0  0  0
   -7.4212  -14.0143   32.8245 N   0  0  0  0  0  0  0  0  0  0  0  0
   -8.0935  -14.9097   34.0951 S   0  0  0  0  0  0  0  0  0  0  0  0
   -7.8240  -16.2936   33.7799 O   0  0  0  0  0  0  0  0  0  0  0  0
   -7.3964  -14.3583   35.2400 O   0  0  0  0  0  0  0  0  0  0  0  0
   -9.7683  -14.9555   34.7569 C   0  0  0  0  0  0  0  0  0  0  0  0
  -10.8476  -15.8563   34.6289 C   0  0  0  0  0  0  0  0  0  0  0  0
  -11.9635  -15.5791   35.3793 N   0  0  0  0  0  0  0  0  0  0  0  0
  -11.5043  -14.6360   36.1368 C   0  0  0  0  0  0  0  0  0  0  0  0
  -12.1146  -13.9380   37.6120 S   0  0  0  0  0  0  0  0  0  0  0  0
  -10.4576  -13.5461   38.0541 C   0  0  0  0  0  0  0  0  0  0  0  0
   -9.5751  -13.8608   37.0929 C   0  0  0  0  0  0  0  0  0  0  0  0
  -10.1633  -14.4072   35.9688 N   0  0  0  0  0  0  0  0  0  0  0  0
   -7.3828  -12.2051   29.5625 H   0  0  0  0  0  0  0  0  0  0  0  0
   -6.2350  -12.4881   30.0607 H   0  0  0  0  0  0  0  0  0  0  0  0
   -5.4500  -10.2868   29.5308 H   0  0  0  0  0  0  0  0  0  0  0  0
   -6.9119   -9.3046   29.9116 H   0  0  0  0  0  0  0  0  0  0  0  0
   -5.7361   -8.4198   31.8001 H   0  0  0  0  0  0  0  0  0  0  0  0
   -2.8568   -8.2727   31.4088 H   0  0  0  0  0  0  0  0  0  0  0  0
   -3.0618   -8.4700   29.6803 H   0  0  0  0  0  0  0  0  0  0  0  0
   -1.9883   -6.4350   31.0036 H   0  0  0  0  0  0  0  0  0  0  0  0
   -3.2442   -5.8794   29.9231 H   0  0  0  0  0  0  0  0  0  0  0  0
   -3.5591   -6.8937   32.7133 H   0  0  0  0  0  0  0  0  0  0  0  0
   -5.5791   -6.2918   30.5446 H   0  0  0  0  0  0  0  0  0  0  0  0
   -5.8541   -6.6846   32.2901 H   0  0  0  0  0  0  0  0  0  0  0  0
   -6.4270  -14.0599   32.6513 H   0  0  0  0  0  0  0  0  0  0  0  0
  -10.8307  -16.7800   34.0640 H   0  0  0  0  0  0  0  0  0  0  0  0
  -10.2076  -13.1549   39.0310 H   0  0  0  0  0  0  0  0  0  0  0  0
   -8.5082  -13.8213   37.1800 H   0  0  0  0  0  0  0  0  0  0  0  0
  1  2  2  0
  2  3  1  0
  3  4  1  0
  4  5  1  0
  5  6  1  0
  6  7  1  0
  7  8  1  0
  8  9  1  0
  2 10  1  0
 10 11  1  0
 11 12  2  0
 11 13  2  0
 11 14  1  0
 14 15  2  0
 15 16  1  0
 16 17  2  0
 17 18  1  0
 18 19  1  0
 19 20  2  0
 20 21  1  0
  9  5  1  0
 21 14  1  0
 21 17  1  0
  3 22  1  0
  3 23  1  0
  4 24  1  0
  4 25  1  0
  5 26  1  0
  6 27  1  0
  6 28  1  0
  7 29  1  0
  7 30  1  0
  8 31  1  0
  9 32  1  0
  9 33  1  0
 10 34  1  0
 15 35  1  0
 19 36  1  0
 20 37  1  0
M  END
>  <Energy>  (1100) 
293.09388505280799

>  <compound_id>  (1100) 
59267

>  <target_id>  (1100) 
1

>  <reference_id>  (1100) 
52

>  <inspiration_ids>  (1100) 
[70, 52]

>  <energy_score>  (1100) 
372.44231958812884

>  <distance_score>  (1100) 
8.980809957368008

>  <path>  (1100) 
/opt/xchem-fragalysis-2/maxwin/BulkDock/SCRATCH/511024/C59267-P52/C59267-P52.minimised.mol

>  <scratch_subdir>  (1100) 
/opt/xchem-fragalysis-2/maxwin/BulkDock/SCRATCH/511024/C59267-P52

>  <fragmenstein_runtime>  (1100) 
11.848401308059692

>  <fragmenstein_outcome>  (1100) 
too moved

>  <fragmenstein_mode>  (1100) 
expansion

>  <fragmenstein_error>  (1100) 


$$$$
C59271-P70
     RDKit          3D

 38 40  0  0  0  0  0  0  0  0999 V2000
   -2.7102  -14.1115   27.6728 O   0  0  0  0  0  0  0  0  0  0  0  0
   -1.6162  -14.3848   28.0807 C   0  0  0  0  0  0  0  0  0  0  0  0
   -1.2074  -15.8919   28.0660 C   0  0  0  0  0  0  0  0  0  0  0  0
   -1.7589  -16.7082   29.2226 C   0  0  0  0  0  0  0  0  0  0  0  0
   -1.1241  -16.9662   30.4360 C   0  0  0  0  0  0  0  0  0  0  0  0
   -2.0558  -17.5998   31.1984 N   0  0  0  0  0  0  0  0  0  0  0  0
   -2.1647  -17.9593   32.5201 C   0  0  0  0  0  0  0  0  0  0  0  0
   -3.3819  -18.4552   32.7873 C   0  0  0  0  0  0  0  0  0  0  0  0
   -4.4193  -18.5205   31.3573 S   0  0  0  0  0  0  0  0  0  0  0  0
   -3.1407  -17.8263   30.4112 C   0  0  0  0  0  0  0  0  0  0  0  0
   -3.0180  -17.3242   29.2062 N   0  0  0  0  0  0  0  0  0  0  0  0
   -0.5873  -13.5413   28.6789 N   0  0  0  0  0  0  0  0  0  0  0  0
   -0.6069  -12.1191   29.0565 C   0  0  0  0  0  0  0  0  0  0  0  0
    0.2508  -11.1179   28.2264 C   0  0  0  0  0  0  0  0  0  0  0  0
    0.0180   -9.6791   28.5448 N   0  0  0  0  0  0  0  0  0  0  0  0
    0.4427   -9.2210   29.8656 C   0  0  0  0  0  0  0  0  0  0  0  0
    0.2986   -7.6994   29.7632 C   0  0  0  0  0  0  0  0  0  0  0  0
    0.5984   -7.3829   28.2998 C   0  0  0  0  0  0  0  0  0  0  0  0
    1.8224   -6.6709   28.1842 O   0  0  0  0  0  0  0  0  0  0  0  0
    0.7089   -8.7592   27.6219 C   0  0  0  0  0  0  0  0  0  0  0  0
   -1.5680  -16.3196   27.1225 H   0  0  0  0  0  0  0  0  0  0  0  0
   -0.1149  -15.9774   28.0418 H   0  0  0  0  0  0  0  0  0  0  0  0
   -0.1601  -16.6767   30.8265 H   0  0  0  0  0  0  0  0  0  0  0  0
   -1.3570  -17.7944   33.2143 H   0  0  0  0  0  0  0  0  0  0  0  0
   -3.7376  -18.7767   33.7566 H   0  0  0  0  0  0  0  0  0  0  0  0
    0.1825  -14.1237   28.9827 H   0  0  0  0  0  0  0  0  0  0  0  0
   -1.6553  -11.8140   29.0181 H   0  0  0  0  0  0  0  0  0  0  0  0
   -0.2831  -12.0819   30.1013 H   0  0  0  0  0  0  0  0  0  0  0  0
    0.0025  -11.2777   27.1696 H   0  0  0  0  0  0  0  0  0  0  0  0
    1.3124  -11.3686   28.3429 H   0  0  0  0  0  0  0  0  0  0  0  0
   -0.1856   -9.6215   30.6670 H   0  0  0  0  0  0  0  0  0  0  0  0
    1.4866   -9.4915   30.0676 H   0  0  0  0  0  0  0  0  0  0  0  0
   -0.7354   -7.4160   29.9938 H   0  0  0  0  0  0  0  0  0  0  0  0
    0.9619   -7.1846   30.4651 H   0  0  0  0  0  0  0  0  0  0  0  0
   -0.2048   -6.7841   27.8556 H   0  0  0  0  0  0  0  0  0  0  0  0
    1.6790   -5.7769   28.5416 H   0  0  0  0  0  0  0  0  0  0  0  0
    1.7607   -9.0415   27.4835 H   0  0  0  0  0  0  0  0  0  0  0  0
    0.2302   -8.7488   26.6374 H   0  0  0  0  0  0  0  0  0  0  0  0
  1  2  2  0
  2  3  1  0
  3  4  1  0
  4  5  2  0
  5  6  1  0
  6  7  1  0
  7  8  2  0
  8  9  1  0
  9 10  1  0
 10 11  2  0
  2 12  1  0
 12 13  1  0
 13 14  1  0
 14 15  1  0
 15 16  1  0
 16 17  1  0
 17 18  1  0
 18 19  1  0
 18 20  1  0
 11  4  1  0
 20 15  1  0
 10  6  1  0
  3 21  1  0
  3 22  1  0
  5 23  1  0
  7 24  1  0
  8 25  1  0
 12 26  1  0
 13 27  1  0
 13 28  1  0
 14 29  1  0
 14 30  1  0
 16 31  1  0
 16 32  1  0
 17 33  1  0
 17 34  1  0
 18 35  1  0
 19 36  1  0
 20 37  1  0
 20 38  1  0
M  END
>  <Energy>  (1101) 
88.421467304456371

>  <compound_id>  (1101) 
59271

>  <target_id>  (1101) 
1

>  <reference_id>  (1101) 
70

>  <inspiration_ids>  (1101) 
[70, 52]

>  <energy_score>  (1101) 
-19.252265485239604

>  <distance_score>  (1101) 
11.503746812211984

>  <path>  (1101) 
/opt/xchem-fragalysis-2/maxwin/BulkDock/SCRATCH/511024/C59271-P70/C59271-P70.minimised.mol

>  <scratch_subdir>  (1101) 
/opt/xchem-fragalysis-2/maxwin/BulkDock/SCRATCH/511024/C59271-P70

>  <fragmenstein_runtime>  (1101) 
25.03143048286438

>  <fragmenstein_outcome>  (1101) 
too moved

>  <fragmenstein_mode>  (1101) 
expansion

>  <fragmenstein_error>  (1101) 


$$$$
C59271-P52
     RDKit          3D

 38 40  0  0  0  0  0  0  0  0999 V2000
   -6.2850  -14.6973   32.8714 O   0  0  0  0  0  0  0  0  0  0  0  0
   -7.4149  -14.2630   32.8186 C   0  0  0  0  0  0  0  0  0  0  0  0
   -8.4566  -14.9012   33.7602 C   0  0  0  0  0  0  0  0  0  0  0  0
   -8.1311  -14.7805   35.1990 C   0  0  0  0  0  0  0  0  0  0  0  0
   -6.9789  -15.1973   35.8550 C   0  0  0  0  0  0  0  0  0  0  0  0
   -7.2111  -14.9097   37.1571 N   0  0  0  0  0  0  0  0  0  0  0  0
   -6.5256  -15.0090   38.3453 C   0  0  0  0  0  0  0  0  0  0  0  0
   -7.2512  -14.5354   39.3733 C   0  0  0  0  0  0  0  0  0  0  0  0
   -8.8459  -13.9359   38.8752 S   0  0  0  0  0  0  0  0  0  0  0  0
   -8.4595  -14.3724   37.2384 C   0  0  0  0  0  0  0  0  0  0  0  0
   -9.0820  -14.3108   36.0977 N   0  0  0  0  0  0  0  0  0  0  0  0
   -8.0400  -13.2165   31.8739 N   0  0  0  0  0  0  0  0  0  0  0  0
   -7.4154  -12.4407   30.5808 C   0  0  0  0  0  0  0  0  0  0  0  0
   -6.1325  -11.8788   29.4754 C   0  0  0  0  0  0  0  0  0  0  0  0
   -5.3582  -10.4660   29.5982 N   0  0  0  0  0  0  0  0  0  0  0  0
   -3.9760   -9.9170   29.2133 C   0  0  0  0  0  0  0  0  0  0  0  0
   -3.6644   -8.2875   30.2006 C   0  0  0  0  0  0  0  0  0  0  0  0
   -5.0924   -7.8377   30.7841 C   0  0  0  0  0  0  0  0  0  0  0  0
   -5.0720   -7.1983   32.0441 O   0  0  0  0  0  0  0  0  0  0  0  0
   -6.0456   -9.3702   30.3582 C   0  0  0  0  0  0  0  0  0  0  0  0
   -9.4777  -14.5873   33.5442 H   0  0  0  0  0  0  0  0  0  0  0  0
   -8.4302  -15.9789   33.5700 H   0  0  0  0  0  0  0  0  0  0  0  0
   -6.0628  -15.6414   35.4901 H   0  0  0  0  0  0  0  0  0  0  0  0
   -5.5315  -15.4268   38.3745 H   0  0  0  0  0  0  0  0  0  0  0  0
   -6.9341  -14.5044   40.4072 H   0  0  0  0  0  0  0  0  0  0  0  0
   -8.9963  -13.0285   32.1663 H   0  0  0  0  0  0  0  0  0  0  0  0
   -7.3452  -11.5248   31.1248 H   0  0  0  0  0  0  0  0  0  0  0  0
   -6.7315  -13.2860   30.6472 H   0  0  0  0  0  0  0  0  0  0  0  0
   -5.6274  -12.8011   29.5256 H   0  0  0  0  0  0  0  0  0  0  0  0
   -6.5172  -11.9734   28.4467 H   0  0  0  0  0  0  0  0  0  0  0  0
   -3.8314   -9.9548   28.1289 H   0  0  0  0  0  0  0  0  0  0  0  0
   -3.1013  -10.5175   29.2389 H   0  0  0  0  0  0  0  0  0  0  0  0
   -3.0242   -8.2374   31.0920 H   0  0  0  0  0  0  0  0  0  0  0  0
   -2.9997   -7.5654   29.7521 H   0  0  0  0  0  0  0  0  0  0  0  0
   -5.4595   -7.0217   30.1686 H   0  0  0  0  0  0  0  0  0  0  0  0
   -5.9503   -7.1699   32.4658 H   0  0  0  0  0  0  0  0  0  0  0  0
   -6.7324   -9.0270   29.5562 H   0  0  0  0  0  0  0  0  0  0  0  0
   -6.7202   -9.7262   31.0795 H   0  0  0  0  0  0  0  0  0  0  0  0
  1  2  2  0
  2  3  1  0
  3  4  1  0
  4  5  2  0
  5  6  1  0
  6  7  1  0
  7  8  2  0
  8  9  1  0
  9 10  1  0
 10 11  2  0
  2 12  1  0
 12 13  1  0
 13 14  1  0
 14 15  1  0
 15 16  1  0
 16 17  1  0
 17 18  1  0
 18 19  1  0
 18 20  1  0
 11  4  1  0
 20 15  1  0
 10  6  1  0
  3 21  1  0
  3 22  1  0
  5 23  1  0
  7 24  1  0
  8 25  1  0
 12 26  1  0
 13 27  1  0
 13 28  1  0
 14 29  1  0
 14 30  1  0
 16 31  1  0
 16 32  1  0
 17 33  1  0
 17 34  1  0
 18 35  1  0
 19 36  1  0
 20 37  1  0
 20 38  1  0
M  END
>  <Energy>  (1102) 
339.52395957142562

>  <compound_id>  (1102) 
59271

>  <target_id>  (1102) 
1

>  <reference_id>  (1102) 
52

>  <inspiration_ids>  (1102) 
[70, 52]

>  <energy_score>  (1102) 
231.85022678173027

>  <distance_score>  (1102) 
10.31795945219723

>  <path>  (1102) 
/opt/xchem-fragalysis-2/maxwin/BulkDock/SCRATCH/511024/C59271-P52/C59271-P52.minimised.mol

>  <scratch_subdir>  (1102) 
/opt/xchem-fragalysis-2/maxwin/BulkDock/SCRATCH/511024/C59271-P52

>  <fragmenstein_runtime>  (1102) 
13.881917953491211

>  <fragmenstein_outcome>  (1102) 
too moved

>  <fragmenstein_mode>  (1102) 
expansion

>  <fragmenstein_error>  (1102) 


$$$$
C59273-P70
     RDKit          3D

 48 50  0  0  0  0  0  0  0  0999 V2000
   -3.0384   -8.2228   33.0667 C   0  0  0  0  0  0  0  0  0  0  0  0
   -4.1971   -9.2511   33.1794 C   0  0  0  0  0  0  0  0  0  0  0  0
   -4.2903  -10.1041   31.8640 C   0  0  0  0  0  0  0  0  0  0  0  0
   -5.3870  -11.5105   31.0569 C   0  0  0  0  0  0  0  0  0  0  0  0
   -6.4117  -10.3490   29.9588 C   0  0  0  0  0  0  0  0  0  0  0  0
   -4.9645  -12.7670   29.7570 C   0  0  0  0  0  0  0  0  0  0  0  0
   -3.8838  -12.7283   29.2049 O   0  0  0  0  0  0  0  0  0  0  0  0
   -6.2619  -13.7025   29.4647 N   0  0  0  0  0  0  0  0  0  0  0  0
   -6.5123  -14.6249   28.4229 C   0  0  0  0  0  0  0  0  0  0  0  0
   -6.1979  -15.1593   30.4004 C   0  0  0  0  0  0  0  0  0  0  0  0
   -5.6570  -16.5206   29.9748 C   0  0  0  0  0  0  0  0  0  0  0  0
   -5.7173  -17.1535   31.7748 C   0  0  0  0  0  0  0  0  0  0  0  0
   -7.2137  -16.8734   32.9376 N   0  0  0  0  0  0  0  0  0  0  0  0
   -7.4907  -18.0946   33.5969 C   0  0  0  0  0  0  0  0  0  0  0  0
   -8.2417  -18.9462   33.1791 O   0  0  0  0  0  0  0  0  0  0  0  0
   -6.9389  -18.3322   34.9712 C   0  0  0  0  0  0  0  0  0  0  0  0
   -6.1462  -19.1759   35.7626 C   0  0  0  0  0  0  0  0  0  0  0  0
   -6.1478  -18.9345   37.1207 N   0  0  0  0  0  0  0  0  0  0  0  0
   -7.1708  -18.1647   37.2296 C   0  0  0  0  0  0  0  0  0  0  0  0
   -8.1678  -17.7422   38.5927 S   0  0  0  0  0  0  0  0  0  0  0  0
   -9.4472  -17.3841   37.4463 C   0  0  0  0  0  0  0  0  0  0  0  0
   -9.0553  -17.4953   36.1595 C   0  0  0  0  0  0  0  0  0  0  0  0
   -7.7510  -17.8956   36.0297 N   0  0  0  0  0  0  0  0  0  0  0  0
   -6.2820  -16.4306   32.0130 C   0  0  0  0  0  0  0  0  0  0  0  0
   -3.1880   -7.5460   32.2195 H   0  0  0  0  0  0  0  0  0  0  0  0
   -2.0803   -8.7365   32.9415 H   0  0  0  0  0  0  0  0  0  0  0  0
   -2.9867   -7.6203   33.9791 H   0  0  0  0  0  0  0  0  0  0  0  0
   -4.0694   -9.8329   34.0937 H   0  0  0  0  0  0  0  0  0  0  0  0
   -5.0596   -8.6145   33.3285 H   0  0  0  0  0  0  0  0  0  0  0  0
   -4.4766   -9.1723   31.2982 H   0  0  0  0  0  0  0  0  0  0  0  0
   -3.2575  -10.3751   31.5853 H   0  0  0  0  0  0  0  0  0  0  0  0
   -6.1776  -11.9315   31.6365 H   0  0  0  0  0  0  0  0  0  0  0  0
   -6.0392   -9.4028   30.2807 H   0  0  0  0  0  0  0  0  0  0  0  0
   -6.4059  -10.2061   28.9185 H   0  0  0  0  0  0  0  0  0  0  0  0
   -7.4783  -10.4269   30.0347 H   0  0  0  0  0  0  0  0  0  0  0  0
   -6.6629  -14.0670   27.4710 H   0  0  0  0  0  0  0  0  0  0  0  0
   -6.2417  -15.6399   28.2468 H   0  0  0  0  0  0  0  0  0  0  0  0
   -7.6216  -14.4731   28.2308 H   0  0  0  0  0  0  0  0  0  0  0  0
   -7.1812  -14.7500   30.7615 H   0  0  0  0  0  0  0  0  0  0  0  0
   -5.8535  -17.2927   29.2368 H   0  0  0  0  0  0  0  0  0  0  0  0
   -4.7589  -16.2701   29.3908 H   0  0  0  0  0  0  0  0  0  0  0  0
   -4.6205  -17.2486   32.1218 H   0  0  0  0  0  0  0  0  0  0  0  0
   -5.9770  -18.2533   31.5940 H   0  0  0  0  0  0  0  0  0  0  0  0
   -5.5102  -19.9903   35.5149 H   0  0  0  0  0  0  0  0  0  0  0  0
  -10.4537  -17.1591   37.7744 H   0  0  0  0  0  0  0  0  0  0  0  0
   -9.6674  -17.4095   35.2698 H   0  0  0  0  0  0  0  0  0  0  0  0
   -7.2875  -15.7792   32.1776 H   0  0  0  0  0  0  0  0  0  0  0  0
   -5.6972  -15.9030   32.9477 H   0  0  0  0  0  0  0  0  0  0  0  0
  1  2  1  0
  2  3  1  0
  3  4  1  0
  4  5  1  0
  4  6  1  0
  6  7  2  0
  6  8  1  0
  8  9  1  0
  8 10  1  0
 10 11  1  0
 11 12  1  0
 12 13  1  0
 13 14  1  0
 14 15  2  0
 14 16  1  0
 16 17  2  0
 17 18  1  0
 18 19  2  0
 19 20  1  0
 20 21  1  0
 21 22  2  0
 22 23  1  0
 13 24  1  0
 24 10  1  0
 23 16  1  0
 23 19  1  0
  1 25  1  0
  1 26  1  0
  1 27  1  0
  2 28  1  0
  2 29  1  0
  3 30  1  0
  3 31  1  0
  4 32  1  0
  5 33  1  0
  5 34  1  0
  5 35  1  0
  9 36  1  0
  9 37  1  0
  9 38  1  0
 10 39  1  0
 11 40  1  0
 11 41  1  0
 12 42  1  0
 12 43  1  0
 17 44  1  0
 21 45  1  0
 22 46  1  0
 24 47  1  0
 24 48  1  0
M  END
>  <Energy>  (1103) 
1079.3825278362203

>  <compound_id>  (1103) 
59273

>  <target_id>  (1103) 
1

>  <reference_id>  (1103) 
70

>  <inspiration_ids>  (1103) 
[70, 52]

>  <energy_score>  (1103) 
986.5607890155069

>  <distance_score>  (1103) 
11.406799534489314

>  <path>  (1103) 
/opt/xchem-fragalysis-2/maxwin/BulkDock/SCRATCH/511024/C59273-P70/C59273-P70.minimised.mol

>  <scratch_subdir>  (1103) 
/opt/xchem-fragalysis-2/maxwin/BulkDock/SCRATCH/511024/C59273-P70

>  <fragmenstein_runtime>  (1103) 
29.99009370803833

>  <fragmenstein_outcome>  (1103) 
too moved

>  <fragmenstein_mode>  (1103) 
expansion

>  <fragmenstein_error>  (1103) 


$$$$
C59273-P52
     RDKit          3D

 48 50  0  0  0  0  0  0  0  0999 V2000
   -6.2522   -4.8461   31.4183 C   0  0  0  0  0  0  0  0  0  0  0  0
   -7.2919   -5.6814   32.1791 C   0  0  0  0  0  0  0  0  0  0  0  0
   -7.0346   -7.2148   32.0546 C   0  0  0  0  0  0  0  0  0  0  0  0
   -8.2210   -8.3648   32.5802 C   0  0  0  0  0  0  0  0  0  0  0  0
   -8.4991   -7.9613   34.0169 C   0  0  0  0  0  0  0  0  0  0  0  0
   -8.2444   -9.6191   31.2545 C   0  0  0  0  0  0  0  0  0  0  0  0
   -8.8190   -9.1805   30.3028 O   0  0  0  0  0  0  0  0  0  0  0  0
   -7.3657  -11.2501   31.2997 N   0  0  0  0  0  0  0  0  0  0  0  0
   -7.0773  -12.2997   30.1304 C   0  0  0  0  0  0  0  0  0  0  0  0
   -8.3542  -12.8652   31.8652 C   0  0  0  0  0  0  0  0  0  0  0  0
   -7.4220  -14.0684   32.8754 C   0  0  0  0  0  0  0  0  0  0  0  0
   -8.2041  -15.1539   33.6709 C   0  0  0  0  0  0  0  0  0  0  0  0
   -9.5898  -14.8111   33.7268 N   0  0  0  0  0  0  0  0  0  0  0  0
  -10.4775  -15.4371   34.7017 C   0  0  0  0  0  0  0  0  0  0  0  0
  -10.6206  -14.9202   35.8027 O   0  0  0  0  0  0  0  0  0  0  0  0
  -11.3842  -16.5878   34.5654 C   0  0  0  0  0  0  0  0  0  0  0  0
  -11.3460  -17.8538   33.9843 C   0  0  0  0  0  0  0  0  0  0  0  0
  -12.4828  -18.6130   34.2044 N   0  0  0  0  0  0  0  0  0  0  0  0
  -13.2598  -17.7641   34.8092 C   0  0  0  0  0  0  0  0  0  0  0  0
  -14.9624  -17.7234   35.1703 S   0  0  0  0  0  0  0  0  0  0  0  0
  -14.7471  -16.1021   35.8361 C   0  0  0  0  0  0  0  0  0  0  0  0
  -13.4936  -15.6436   35.6915 C   0  0  0  0  0  0  0  0  0  0  0  0
  -12.6664  -16.5696   35.0829 N   0  0  0  0  0  0  0  0  0  0  0  0
   -9.9212  -13.7332   32.6375 C   0  0  0  0  0  0  0  0  0  0  0  0
   -6.2880   -5.0682   30.3472 H   0  0  0  0  0  0  0  0  0  0  0  0
   -5.2427   -5.0587   31.7833 H   0  0  0  0  0  0  0  0  0  0  0  0
   -6.4512   -3.7790   31.5558 H   0  0  0  0  0  0  0  0  0  0  0  0
   -7.2496   -5.4036   33.2387 H   0  0  0  0  0  0  0  0  0  0  0  0
   -8.2899   -5.4089   31.8285 H   0  0  0  0  0  0  0  0  0  0  0  0
   -6.7396   -7.4710   31.0339 H   0  0  0  0  0  0  0  0  0  0  0  0
   -6.1251   -7.3704   32.6435 H   0  0  0  0  0  0  0  0  0  0  0  0
   -9.2139   -8.0068   32.3177 H   0  0  0  0  0  0  0  0  0  0  0  0
   -7.6229   -7.9686   34.6580 H   0  0  0  0  0  0  0  0  0  0  0  0
   -9.2993   -8.5343   34.4797 H   0  0  0  0  0  0  0  0  0  0  0  0
   -8.8595   -6.9235   34.0592 H   0  0  0  0  0  0  0  0  0  0  0  0
   -6.5401  -13.1985   30.3907 H   0  0  0  0  0  0  0  0  0  0  0  0
   -7.5231  -12.3724   29.1547 H   0  0  0  0  0  0  0  0  0  0  0  0
   -6.1825  -11.8131   29.6806 H   0  0  0  0  0  0  0  0  0  0  0  0
   -8.6782  -13.1473   30.9133 H   0  0  0  0  0  0  0  0  0  0  0  0
   -6.9789  -13.4802   33.6829 H   0  0  0  0  0  0  0  0  0  0  0  0
   -6.5559  -14.5297   32.3870 H   0  0  0  0  0  0  0  0  0  0  0  0
   -7.8369  -15.1476   34.7070 H   0  0  0  0  0  0  0  0  0  0  0  0
   -8.0219  -16.1812   33.3602 H   0  0  0  0  0  0  0  0  0  0  0  0
  -10.5531  -18.2408   33.3636 H   0  0  0  0  0  0  0  0  0  0  0  0
  -15.5675  -15.5563   36.2832 H   0  0  0  0  0  0  0  0  0  0  0  0
  -13.1190  -14.6753   35.9814 H   0  0  0  0  0  0  0  0  0  0  0  0
  -10.6137  -14.1126   31.9277 H   0  0  0  0  0  0  0  0  0  0  0  0
  -10.6835  -13.1332   33.1071 H   0  0  0  0  0  0  0  0  0  0  0  0
  1  2  1  0
  2  3  1  0
  3  4  1  0
  4  5  1  0
  4  6  1  0
  6  7  2  0
  6  8  1  0
  8  9  1  0
  8 10  1  0
 10 11  1  0
 11 12  1  0
 12 13  1  0
 13 14  1  0
 14 15  2  0
 14 16  1  0
 16 17  2  0
 17 18  1  0
 18 19  2  0
 19 20  1  0
 20 21  1  0
 21 22  2  0
 22 23  1  0
 13 24  1  0
 24 10  1  0
 23 16  1  0
 23 19  1  0
  1 25  1  0
  1 26  1  0
  1 27  1  0
  2 28  1  0
  2 29  1  0
  3 30  1  0
  3 31  1  0
  4 32  1  0
  5 33  1  0
  5 34  1  0
  5 35  1  0
  9 36  1  0
  9 37  1  0
  9 38  1  0
 10 39  1  0
 11 40  1  0
 11 41  1  0
 12 42  1  0
 12 43  1  0
 17 44  1  0
 21 45  1  0
 22 46  1  0
 24 47  1  0
 24 48  1  0
M  END
>  <Energy>  (1104) 
474.95987532541437

>  <compound_id>  (1104) 
59273

>  <target_id>  (1104) 
1

>  <reference_id>  (1104) 
52

>  <inspiration_ids>  (1104) 
[70, 52]

>  <energy_score>  (1104) 
382.1381365047041

>  <distance_score>  (1104) 
10.436720403923617

>  <path>  (1104) 
/opt/xchem-fragalysis-2/maxwin/BulkDock/SCRATCH/511024/C59273-P52/C59273-P52.minimised.mol

>  <scratch_subdir>  (1104) 
/opt/xchem-fragalysis-2/maxwin/BulkDock/SCRATCH/511024/C59273-P52

>  <fragmenstein_runtime>  (1104) 
35.5834858417511

>  <fragmenstein_outcome>  (1104) 
too moved

>  <fragmenstein_mode>  (1104) 
expansion

>  <fragmenstein_error>  (1104) 


$$$$
C59275-P70
     RDKit          3D

 37 40  0  0  0  0  0  0  0  0999 V2000
  -12.8278   -5.4363   29.1601 O   0  0  0  0  0  0  0  0  0  0  0  0
  -12.4974   -6.1224   28.2398 C   0  0  0  0  0  0  0  0  0  0  0  0
  -12.8154   -7.5179   27.9316 N   0  0  0  0  0  0  0  0  0  0  0  0
  -13.7185   -8.4757   28.6074 C   0  0  0  0  0  0  0  0  0  0  0  0
  -13.6205   -9.9922   28.4748 C   0  0  0  0  0  0  0  0  0  0  0  0
  -13.7055  -10.8662   27.3993 C   0  0  0  0  0  0  0  0  0  0  0  0
  -13.9320  -12.1156   27.9527 N   0  0  0  0  0  0  0  0  0  0  0  0
  -14.0702  -13.3897   27.2695 C   0  0  0  0  0  0  0  0  0  0  0  0
  -14.1894  -14.6613   28.1248 C   0  0  0  0  0  0  0  0  0  0  0  0
  -15.2891  -15.4956   27.4668 C   0  0  0  0  0  0  0  0  0  0  0  0
  -15.5833  -14.8653   26.1788 N   0  0  0  0  0  0  0  0  0  0  0  0
  -15.3232  -13.4435   26.4051 C   0  0  0  0  0  0  0  0  0  0  0  0
  -13.9439  -12.0324   29.2925 N   0  0  0  0  0  0  0  0  0  0  0  0
  -13.7402  -10.7635   29.6243 N   0  0  0  0  0  0  0  0  0  0  0  0
  -11.6391   -5.4122   27.2516 C   0  0  0  0  0  0  0  0  0  0  0  0
  -11.3396   -5.6506   25.9097 C   0  0  0  0  0  0  0  0  0  0  0  0
  -10.4606   -4.7317   25.3604 N   0  0  0  0  0  0  0  0  0  0  0  0
  -10.2892   -3.8746   26.3215 C   0  0  0  0  0  0  0  0  0  0  0  0
   -9.4205   -2.3719   26.4559 S   0  0  0  0  0  0  0  0  0  0  0  0
  -10.0113   -2.2282   28.1096 C   0  0  0  0  0  0  0  0  0  0  0  0
  -10.8111   -3.2499   28.4726 C   0  0  0  0  0  0  0  0  0  0  0  0
  -10.9722   -4.1890   27.4642 N   0  0  0  0  0  0  0  0  0  0  0  0
  -12.4338   -7.7516   27.0288 H   0  0  0  0  0  0  0  0  0  0  0  0
  -13.6719   -8.2191   29.6732 H   0  0  0  0  0  0  0  0  0  0  0  0
  -14.7259   -8.1906   28.2790 H   0  0  0  0  0  0  0  0  0  0  0  0
  -13.7179  -10.7106   26.3312 H   0  0  0  0  0  0  0  0  0  0  0  0
  -13.1802  -13.4854   26.6323 H   0  0  0  0  0  0  0  0  0  0  0  0
  -13.2305  -15.1851   28.1407 H   0  0  0  0  0  0  0  0  0  0  0  0
  -14.4550  -14.4517   29.1638 H   0  0  0  0  0  0  0  0  0  0  0  0
  -16.1941  -15.4787   28.0845 H   0  0  0  0  0  0  0  0  0  0  0  0
  -15.0182  -16.5394   27.3171 H   0  0  0  0  0  0  0  0  0  0  0  0
  -14.9473  -15.2280   25.4703 H   0  0  0  0  0  0  0  0  0  0  0  0
  -15.1893  -12.9143   25.4556 H   0  0  0  0  0  0  0  0  0  0  0  0
  -16.1844  -12.9900   26.9124 H   0  0  0  0  0  0  0  0  0  0  0  0
  -11.7119   -6.4589   25.2924 H   0  0  0  0  0  0  0  0  0  0  0  0
   -9.7503   -1.3846   28.7366 H   0  0  0  0  0  0  0  0  0  0  0  0
  -11.3011   -3.3767   29.4269 H   0  0  0  0  0  0  0  0  0  0  0  0
  1  2  2  0
  2  3  1  0
  3  4  1  0
  4  5  1  0
  5  6  2  0
  6  7  1  0
  7  8  1  0
  8  9  1  0
  9 10  1  0
 10 11  1  0
 11 12  1  0
  7 13  1  0
 13 14  2  0
  2 15  1  0
 15 16  2  0
 16 17  1  0
 17 18  2  0
 18 19  1  0
 19 20  1  0
 20 21  2  0
 21 22  1  0
 14  5  1  0
 22 15  1  0
 12  8  1  0
 22 18  1  0
  3 23  1  0
  4 24  1  0
  4 25  1  0
  6 26  1  0
  8 27  1  0
  9 28  1  0
  9 29  1  0
 10 30  1  0
 10 31  1  0
 11 32  1  0
 12 33  1  0
 12 34  1  0
 16 35  1  0
 20 36  1  0
 21 37  1  0
M  END
>  <Energy>  (1105) 
11.444434034952096

>  <compound_id>  (1105) 
59275

>  <target_id>  (1105) 
1

>  <reference_id>  (1105) 
70

>  <inspiration_ids>  (1105) 
[70, 52]

>  <energy_score>  (1105) 
-37.321761903596496

>  <distance_score>  (1105) 
12.251982532601984

>  <path>  (1105) 
/opt/xchem-fragalysis-2/maxwin/BulkDock/SCRATCH/511024/C59275-P70/C59275-P70.minimised.mol

>  <scratch_subdir>  (1105) 
/opt/xchem-fragalysis-2/maxwin/BulkDock/SCRATCH/511024/C59275-P70

>  <fragmenstein_runtime>  (1105) 
19.542381525039673

>  <fragmenstein_outcome>  (1105) 
too moved

>  <fragmenstein_mode>  (1105) 
expansion

>  <fragmenstein_error>  (1105) 


$$$$
C59275-P52
     RDKit          3D

 37 40  0  0  0  0  0  0  0  0999 V2000
   -5.5918  -14.7207   29.2012 O   0  0  0  0  0  0  0  0  0  0  0  0
   -6.2275  -14.0715   29.9977 C   0  0  0  0  0  0  0  0  0  0  0  0
   -6.8560  -14.5313   31.4486 N   0  0  0  0  0  0  0  0  0  0  0  0
   -6.7120  -15.8706   32.2426 C   0  0  0  0  0  0  0  0  0  0  0  0
   -7.8450  -16.6320   33.3504 C   0  0  0  0  0  0  0  0  0  0  0  0
   -8.0590  -18.0395   33.5364 C   0  0  0  0  0  0  0  0  0  0  0  0
   -9.4805  -18.2603   32.9683 N   0  0  0  0  0  0  0  0  0  0  0  0
  -10.3890  -19.5325   32.6443 C   0  0  0  0  0  0  0  0  0  0  0  0
  -10.1393  -20.9693   33.2740 C   0  0  0  0  0  0  0  0  0  0  0  0
  -10.6012  -22.0816   32.3488 C   0  0  0  0  0  0  0  0  0  0  0  0
  -11.2698  -21.4199   31.2654 N   0  0  0  0  0  0  0  0  0  0  0  0
  -10.7879  -20.0372   31.2257 C   0  0  0  0  0  0  0  0  0  0  0  0
  -10.0199  -17.1595   33.5906 N   0  0  0  0  0  0  0  0  0  0  0  0
   -9.1028  -16.1320   33.6444 N   0  0  0  0  0  0  0  0  0  0  0  0
   -6.3534  -12.3324   29.5522 C   0  0  0  0  0  0  0  0  0  0  0  0
   -7.0797  -11.6646   30.5030 C   0  0  0  0  0  0  0  0  0  0  0  0
   -6.8466  -10.1601   30.7573 N   0  0  0  0  0  0  0  0  0  0  0  0
   -5.7387   -9.8071   30.1394 C   0  0  0  0  0  0  0  0  0  0  0  0
   -4.2567   -8.1119   30.5077 S   0  0  0  0  0  0  0  0  0  0  0  0
   -3.3376   -9.3829   29.2075 C   0  0  0  0  0  0  0  0  0  0  0  0
   -4.0495  -10.5187   28.7703 C   0  0  0  0  0  0  0  0  0  0  0  0
   -5.3164  -10.9183   29.3028 N   0  0  0  0  0  0  0  0  0  0  0  0
   -7.3978  -13.7903   31.8270 H   0  0  0  0  0  0  0  0  0  0  0  0
   -5.9803  -15.5549   33.0048 H   0  0  0  0  0  0  0  0  0  0  0  0
   -6.1172  -16.5463   31.6264 H   0  0  0  0  0  0  0  0  0  0  0  0
   -7.4223  -18.9111   33.4730 H   0  0  0  0  0  0  0  0  0  0  0  0
  -11.3260  -19.1893   33.1118 H   0  0  0  0  0  0  0  0  0  0  0  0
  -10.7588  -21.0573   34.1741 H   0  0  0  0  0  0  0  0  0  0  0  0
   -9.0895  -21.1560   33.5182 H   0  0  0  0  0  0  0  0  0  0  0  0
  -11.2776  -22.7740   32.8607 H   0  0  0  0  0  0  0  0  0  0  0  0
   -9.7491  -22.6735   31.9993 H   0  0  0  0  0  0  0  0  0  0  0  0
  -11.1437  -21.9037   30.3786 H   0  0  0  0  0  0  0  0  0  0  0  0
  -11.6678  -19.6048   30.8283 H   0  0  0  0  0  0  0  0  0  0  0  0
  -10.0705  -19.8884   30.4432 H   0  0  0  0  0  0  0  0  0  0  0  0
   -7.7273  -12.2303   31.1618 H   0  0  0  0  0  0  0  0  0  0  0  0
   -2.3679   -8.9901   28.9396 H   0  0  0  0  0  0  0  0  0  0  0  0
   -3.6044  -11.2184   28.1320 H   0  0  0  0  0  0  0  0  0  0  0  0
  1  2  2  0
  2  3  1  0
  3  4  1  0
  4  5  1  0
  5  6  2  0
  6  7  1  0
  7  8  1  0
  8  9  1  0
  9 10  1  0
 10 11  1  0
 11 12  1  0
  7 13  1  0
 13 14  2  0
  2 15  1  0
 15 16  2  0
 16 17  1  0
 17 18  2  0
 18 19  1  0
 19 20  1  0
 20 21  2  0
 21 22  1  0
 14  5  1  0
 22 15  1  0
 12  8  1  0
 22 18  1  0
  3 23  1  0
  4 24  1  0
  4 25  1  0
  6 26  1  0
  8 27  1  0
  9 28  1  0
  9 29  1  0
 10 30  1  0
 10 31  1  0
 11 32  1  0
 12 33  1  0
 12 34  1  0
 16 35  1  0
 20 36  1  0
 21 37  1  0
M  END
>  <Energy>  (1106) 
342.67435659895619

>  <compound_id>  (1106) 
59275

>  <target_id>  (1106) 
1

>  <reference_id>  (1106) 
52

>  <inspiration_ids>  (1106) 
[70, 52]

>  <energy_score>  (1106) 
293.9081606604019

>  <distance_score>  (1106) 
9.956130511809842

>  <path>  (1106) 
/opt/xchem-fragalysis-2/maxwin/BulkDock/SCRATCH/511024/C59275-P52/C59275-P52.minimised.mol

>  <scratch_subdir>  (1106) 
/opt/xchem-fragalysis-2/maxwin/BulkDock/SCRATCH/511024/C59275-P52

>  <fragmenstein_runtime>  (1106) 
14.54209280014038

>  <fragmenstein_outcome>  (1106) 
too moved

>  <fragmenstein_mode>  (1106) 
expansion

>  <fragmenstein_error>  (1106) 


$$$$
C59300-P70
     RDKit          3D

 46 48  0  0  0  0  0  0  0  0999 V2000
   -6.6068  -15.1407   25.3265 C   0  0  0  0  0  0  0  0  0  0  0  0
   -7.1533  -15.4559   26.7639 C   0  0  0  0  0  0  0  0  0  0  0  0
   -5.9032  -15.0232   27.6251 C   0  0  0  0  0  0  0  0  0  0  0  0
   -8.2384  -14.4407   26.9455 C   0  0  0  0  0  0  0  0  0  0  0  0
   -7.6911  -16.9178   27.2233 O   0  0  0  0  0  0  0  0  0  0  0  0
   -8.8599  -17.7966   26.8753 C   0  0  0  0  0  0  0  0  0  0  0  0
   -9.6652  -17.3186   26.0868 O   0  0  0  0  0  0  0  0  0  0  0  0
   -8.7826  -19.3723   27.5734 N   0  0  0  0  0  0  0  0  0  0  0  0
   -9.8869  -21.0457   27.2502 C   0  0  0  0  0  0  0  0  0  0  0  0
  -11.2572  -21.7195   26.4908 C   0  0  0  0  0  0  0  0  0  0  0  0
  -12.0651  -22.3505   27.6012 C   0  0  0  0  0  0  0  0  0  0  0  0
  -11.0888  -22.7914   28.5410 N   0  0  0  0  0  0  0  0  0  0  0  0
  -10.4057  -23.9573   28.0329 C   0  0  0  0  0  0  0  0  0  0  0  0
   -9.4095  -24.0520   27.3708 O   0  0  0  0  0  0  0  0  0  0  0  0
  -11.1119  -25.0881   28.5848 C   0  0  0  0  0  0  0  0  0  0  0  0
  -11.9350  -24.6917   29.6353 C   0  0  0  0  0  0  0  0  0  0  0  0
  -11.3729  -25.1674   30.7633 N   0  0  0  0  0  0  0  0  0  0  0  0
  -11.7570  -24.9742   32.0701 C   0  0  0  0  0  0  0  0  0  0  0  0
  -10.9271  -25.4257   33.0003 C   0  0  0  0  0  0  0  0  0  0  0  0
   -9.5862  -25.7266   32.5992 C   0  0  0  0  0  0  0  0  0  0  0  0
   -9.2427  -25.9254   31.3156 C   0  0  0  0  0  0  0  0  0  0  0  0
  -10.2412  -25.8230   30.3386 C   0  0  0  0  0  0  0  0  0  0  0  0
  -10.3160  -26.1122   29.0518 N   0  0  0  0  0  0  0  0  0  0  0  0
  -10.7302  -21.3894   28.5043 C   0  0  0  0  0  0  0  0  0  0  0  0
   -7.3210  -15.4312   24.5519 H   0  0  0  0  0  0  0  0  0  0  0  0
   -6.3814  -14.0740   25.2151 H   0  0  0  0  0  0  0  0  0  0  0  0
   -5.6326  -15.6080   25.1328 H   0  0  0  0  0  0  0  0  0  0  0  0
   -5.2973  -15.9066   27.8538 H   0  0  0  0  0  0  0  0  0  0  0  0
   -6.1531  -14.5381   28.5691 H   0  0  0  0  0  0  0  0  0  0  0  0
   -5.2612  -14.2956   27.1135 H   0  0  0  0  0  0  0  0  0  0  0  0
   -9.1222  -14.6473   26.3355 H   0  0  0  0  0  0  0  0  0  0  0  0
   -8.5248  -14.3192   27.9783 H   0  0  0  0  0  0  0  0  0  0  0  0
   -7.8177  -13.4807   26.6861 H   0  0  0  0  0  0  0  0  0  0  0  0
   -7.9435  -19.4597   28.1172 H   0  0  0  0  0  0  0  0  0  0  0  0
   -9.1857  -21.9209   27.2312 H   0  0  0  0  0  0  0  0  0  0  0  0
  -11.7279  -21.1902   25.6891 H   0  0  0  0  0  0  0  0  0  0  0  0
  -11.0162  -22.6596   25.9699 H   0  0  0  0  0  0  0  0  0  0  0  0
  -12.8582  -21.8312   28.0990 H   0  0  0  0  0  0  0  0  0  0  0  0
  -12.4294  -23.2578   27.1678 H   0  0  0  0  0  0  0  0  0  0  0  0
  -12.5966  -23.8542   29.7472 H   0  0  0  0  0  0  0  0  0  0  0  0
  -12.7270  -24.5546   32.2927 H   0  0  0  0  0  0  0  0  0  0  0  0
  -11.1726  -25.4367   34.0413 H   0  0  0  0  0  0  0  0  0  0  0  0
   -8.8774  -25.8347   33.4028 H   0  0  0  0  0  0  0  0  0  0  0  0
   -8.2458  -26.2088   31.0297 H   0  0  0  0  0  0  0  0  0  0  0  0
  -10.2537  -21.2516   29.4672 H   0  0  0  0  0  0  0  0  0  0  0  0
  -11.5920  -20.7519   28.7219 H   0  0  0  0  0  0  0  0  0  0  0  0
  1  2  1  0
  2  3  1  0
  2  4  1  0
  2  5  1  0
  5  6  1  0
  6  7  2  0
  6  8  1  0
  8  9  1  0
  9 10  1  0
 10 11  1  0
 11 12  1  0
 12 13  1  0
 13 14  2  0
 13 15  1  0
 15 16  2  0
 16 17  1  0
 17 18  1  0
 18 19  2  0
 19 20  1  0
 20 21  2  0
 21 22  1  0
 22 23  2  0
 12 24  1  0
 24  9  1  0
 23 15  1  0
 22 17  1  0
  1 25  1  0
  1 26  1  0
  1 27  1  0
  3 28  1  0
  3 29  1  0
  3 30  1  0
  4 31  1  0
  4 32  1  0
  4 33  1  0
  8 34  1  0
  9 35  1  0
 10 36  1  0
 10 37  1  0
 11 38  1  0
 11 39  1  0
 16 40  1  0
 18 41  1  0
 19 42  1  0
 20 43  1  0
 21 44  1  0
 24 45  1  0
 24 46  1  0
M  END
>  <Energy>  (1107) 
392.85281611605268

>  <compound_id>  (1107) 
59300

>  <target_id>  (1107) 
1

>  <reference_id>  (1107) 
70

>  <inspiration_ids>  (1107) 
[70, 52]

>  <energy_score>  (1107) 
323.01386934279867

>  <distance_score>  (1107) 
10.827842117293832

>  <path>  (1107) 
/opt/xchem-fragalysis-2/maxwin/BulkDock/SCRATCH/511024/C59300-P70/C59300-P70.minimised.mol

>  <scratch_subdir>  (1107) 
/opt/xchem-fragalysis-2/maxwin/BulkDock/SCRATCH/511024/C59300-P70

>  <fragmenstein_runtime>  (1107) 
48.64116072654724

>  <fragmenstein_outcome>  (1107) 
too moved

>  <fragmenstein_mode>  (1107) 
expansion

>  <fragmenstein_error>  (1107) 


$$$$
C59300-P52
     RDKit          3D

 46 48  0  0  0  0  0  0  0  0999 V2000
   -4.1320  -11.2038   31.1146 C   0  0  0  0  0  0  0  0  0  0  0  0
   -5.4312  -11.4834   31.9257 C   0  0  0  0  0  0  0  0  0  0  0  0
   -6.1148  -10.1125   32.0326 C   0  0  0  0  0  0  0  0  0  0  0  0
   -5.1093  -12.0855   33.2878 C   0  0  0  0  0  0  0  0  0  0  0  0
   -6.2094  -12.4282   31.1243 O   0  0  0  0  0  0  0  0  0  0  0  0
   -7.4859  -12.8724   31.3536 C   0  0  0  0  0  0  0  0  0  0  0  0
   -8.0480  -12.9613   32.3998 O   0  0  0  0  0  0  0  0  0  0  0  0
   -7.9467  -13.0896   30.0336 N   0  0  0  0  0  0  0  0  0  0  0  0
   -9.5649  -13.4632   29.4010 C   0  0  0  0  0  0  0  0  0  0  0  0
   -8.3131  -14.5274   28.1453 C   0  0  0  0  0  0  0  0  0  0  0  0
   -8.5982  -16.3426   28.8325 C   0  0  0  0  0  0  0  0  0  0  0  0
  -10.5883  -17.0567   29.2835 N   0  0  0  0  0  0  0  0  0  0  0  0
  -10.4120  -18.9320   30.1210 C   0  0  0  0  0  0  0  0  0  0  0  0
  -10.3468  -19.0985   31.3538 O   0  0  0  0  0  0  0  0  0  0  0  0
  -10.4977  -20.2902   29.4242 C   0  0  0  0  0  0  0  0  0  0  0  0
  -11.2593  -21.1859   30.2142 C   0  0  0  0  0  0  0  0  0  0  0  0
  -11.2581  -22.3943   29.6203 N   0  0  0  0  0  0  0  0  0  0  0  0
  -11.6949  -23.6152   30.1158 C   0  0  0  0  0  0  0  0  0  0  0  0
  -11.6112  -24.6992   29.3301 C   0  0  0  0  0  0  0  0  0  0  0  0
  -11.1075  -24.5293   27.9774 C   0  0  0  0  0  0  0  0  0  0  0  0
  -10.6798  -23.3321   27.5257 C   0  0  0  0  0  0  0  0  0  0  0  0
  -10.6927  -22.1926   28.3821 C   0  0  0  0  0  0  0  0  0  0  0  0
  -10.2271  -20.9545   28.2596 N   0  0  0  0  0  0  0  0  0  0  0  0
  -10.9383  -15.0473   30.2640 C   0  0  0  0  0  0  0  0  0  0  0  0
   -3.4883  -10.4753   31.6182 H   0  0  0  0  0  0  0  0  0  0  0  0
   -4.3657  -10.8405   30.1077 H   0  0  0  0  0  0  0  0  0  0  0  0
   -3.5656  -12.1328   30.9818 H   0  0  0  0  0  0  0  0  0  0  0  0
   -6.1691   -9.6687   31.0395 H   0  0  0  0  0  0  0  0  0  0  0  0
   -7.1312  -10.2102   32.4252 H   0  0  0  0  0  0  0  0  0  0  0  0
   -5.5555   -9.4305   32.6815 H   0  0  0  0  0  0  0  0  0  0  0  0
   -6.0162  -12.2170   33.8866 H   0  0  0  0  0  0  0  0  0  0  0  0
   -4.4208  -11.4508   33.8552 H   0  0  0  0  0  0  0  0  0  0  0  0
   -4.6571  -13.0773   33.1773 H   0  0  0  0  0  0  0  0  0  0  0  0
   -7.2135  -12.8381   29.3846 H   0  0  0  0  0  0  0  0  0  0  0  0
   -9.8498  -12.8450   28.5414 H   0  0  0  0  0  0  0  0  0  0  0  0
   -8.6055  -14.4808   27.0768 H   0  0  0  0  0  0  0  0  0  0  0  0
   -7.2427  -14.3151   28.2473 H   0  0  0  0  0  0  0  0  0  0  0  0
   -8.3923  -16.9601   27.9169 H   0  0  0  0  0  0  0  0  0  0  0  0
   -7.6705  -16.5339   29.4440 H   0  0  0  0  0  0  0  0  0  0  0  0
  -11.7045  -21.0471   31.1921 H   0  0  0  0  0  0  0  0  0  0  0  0
  -12.0588  -23.6294   31.1352 H   0  0  0  0  0  0  0  0  0  0  0  0
  -11.9115  -25.6848   29.6639 H   0  0  0  0  0  0  0  0  0  0  0  0
  -11.0968  -25.3976   27.3249 H   0  0  0  0  0  0  0  0  0  0  0  0
  -10.3288  -23.2161   26.5090 H   0  0  0  0  0  0  0  0  0  0  0  0
  -11.1780  -14.5257   31.2492 H   0  0  0  0  0  0  0  0  0  0  0  0
  -12.0764  -14.7734   30.0400 H   0  0  0  0  0  0  0  0  0  0  0  0
  1  2  1  0
  2  3  1  0
  2  4  1  0
  2  5  1  0
  5  6  1  0
  6  7  2  0
  6  8  1  0
  8  9  1  0
  9 10  1  0
 10 11  1  0
 11 12  1  0
 12 13  1  0
 13 14  2  0
 13 15  1  0
 15 16  2  0
 16 17  1  0
 17 18  1  0
 18 19  2  0
 19 20  1  0
 20 21  2  0
 21 22  1  0
 22 23  2  0
 12 24  1  0
 24  9  1  0
 23 15  1  0
 22 17  1  0
  1 25  1  0
  1 26  1  0
  1 27  1  0
  3 28  1  0
  3 29  1  0
  3 30  1  0
  4 31  1  0
  4 32  1  0
  4 33  1  0
  8 34  1  0
  9 35  1  0
 10 36  1  0
 10 37  1  0
 11 38  1  0
 11 39  1  0
 16 40  1  0
 18 41  1  0
 19 42  1  0
 20 43  1  0
 21 44  1  0
 24 45  1  0
 24 46  1  0
M  END
>  <Energy>  (1108) 
943.42399538699397

>  <compound_id>  (1108) 
59300

>  <target_id>  (1108) 
1

>  <reference_id>  (1108) 
52

>  <inspiration_ids>  (1108) 
[70, 52]

>  <energy_score>  (1108) 
873.5850486137366

>  <distance_score>  (1108) 
10.03528212270279

>  <path>  (1108) 
/opt/xchem-fragalysis-2/maxwin/BulkDock/SCRATCH/511024/C59300-P52/C59300-P52.minimised.mol

>  <scratch_subdir>  (1108) 
/opt/xchem-fragalysis-2/maxwin/BulkDock/SCRATCH/511024/C59300-P52

>  <fragmenstein_runtime>  (1108) 
39.44253420829773

>  <fragmenstein_outcome>  (1108) 
too moved

>  <fragmenstein_mode>  (1108) 
expansion

>  <fragmenstein_error>  (1108) 


$$$$
C59302-P70
     RDKit          3D

 47 49  0  0  0  0  0  0  0  0999 V2000
  -11.2546  -13.9870   23.7458 C   0  0  0  0  0  0  0  0  0  0  0  0
  -10.5276  -14.6122   22.4809 C   0  0  0  0  0  0  0  0  0  0  0  0
  -11.7271  -14.6052   21.4974 C   0  0  0  0  0  0  0  0  0  0  0  0
   -9.5171  -13.7797   21.5926 C   0  0  0  0  0  0  0  0  0  0  0  0
   -9.7148  -15.8385   22.9289 O   0  0  0  0  0  0  0  0  0  0  0  0
  -10.5099  -16.9616   23.1838 C   0  0  0  0  0  0  0  0  0  0  0  0
  -11.6109  -16.6095   23.6154 O   0  0  0  0  0  0  0  0  0  0  0  0
   -9.9367  -18.6121   22.7514 N   0  0  0  0  0  0  0  0  0  0  0  0
  -10.8705  -20.2580   22.6983 C   0  0  0  0  0  0  0  0  0  0  0  0
  -11.3458  -20.9383   21.4141 C   0  0  0  0  0  0  0  0  0  0  0  0
  -12.0288  -22.1936   21.9663 C   0  0  0  0  0  0  0  0  0  0  0  0
  -12.4361  -22.1212   23.3550 N   0  0  0  0  0  0  0  0  0  0  0  0
  -12.1410  -23.3374   24.2303 C   0  0  0  0  0  0  0  0  0  0  0  0
  -11.7762  -23.4099   25.7288 C   0  0  0  0  0  0  0  0  0  0  0  0
  -11.6222  -22.4913   26.7514 C   0  0  0  0  0  0  0  0  0  0  0  0
  -11.2477  -23.0009   27.9558 N   0  0  0  0  0  0  0  0  0  0  0  0
  -11.1819  -24.2842   27.7353 C   0  0  0  0  0  0  0  0  0  0  0  0
  -10.8310  -25.3373   28.6234 C   0  0  0  0  0  0  0  0  0  0  0  0
  -10.9907  -26.6091   28.2271 C   0  0  0  0  0  0  0  0  0  0  0  0
  -11.5351  -26.9160   26.9154 C   0  0  0  0  0  0  0  0  0  0  0  0
  -11.7636  -25.9273   26.0347 C   0  0  0  0  0  0  0  0  0  0  0  0
  -11.5696  -24.6049   26.4276 N   0  0  0  0  0  0  0  0  0  0  0  0
  -11.9782  -20.7773   23.6848 C   0  0  0  0  0  0  0  0  0  0  0  0
  -12.2819  -14.3591   23.8563 H   0  0  0  0  0  0  0  0  0  0  0  0
  -11.3499  -12.8973   23.6571 H   0  0  0  0  0  0  0  0  0  0  0  0
  -10.7655  -14.2558   24.6906 H   0  0  0  0  0  0  0  0  0  0  0  0
  -12.4901  -15.3466   21.7469 H   0  0  0  0  0  0  0  0  0  0  0  0
  -11.4431  -14.7549   20.4543 H   0  0  0  0  0  0  0  0  0  0  0  0
  -12.2285  -13.6265   21.4972 H   0  0  0  0  0  0  0  0  0  0  0  0
   -9.8606  -12.7540   21.5099 H   0  0  0  0  0  0  0  0  0  0  0  0
   -9.4775  -14.1907   20.5741 H   0  0  0  0  0  0  0  0  0  0  0  0
   -8.4726  -13.8661   21.8890 H   0  0  0  0  0  0  0  0  0  0  0  0
   -8.9264  -18.5796   22.5013 H   0  0  0  0  0  0  0  0  0  0  0  0
  -10.1327  -21.0125   22.7075 H   0  0  0  0  0  0  0  0  0  0  0  0
  -10.5261  -21.2800   20.7675 H   0  0  0  0  0  0  0  0  0  0  0  0
  -11.9800  -20.3753   20.7694 H   0  0  0  0  0  0  0  0  0  0  0  0
  -11.2373  -22.9130   21.9567 H   0  0  0  0  0  0  0  0  0  0  0  0
  -12.8876  -22.4165   21.3495 H   0  0  0  0  0  0  0  0  0  0  0  0
  -13.0450  -23.9523   24.1358 H   0  0  0  0  0  0  0  0  0  0  0  0
  -11.3232  -23.8967   23.7584 H   0  0  0  0  0  0  0  0  0  0  0  0
  -11.7556  -21.4446   26.6711 H   0  0  0  0  0  0  0  0  0  0  0  0
  -10.4614  -25.0929   29.6129 H   0  0  0  0  0  0  0  0  0  0  0  0
  -10.7315  -27.4257   28.8944 H   0  0  0  0  0  0  0  0  0  0  0  0
  -11.7564  -27.9461   26.6690 H   0  0  0  0  0  0  0  0  0  0  0  0
  -12.1553  -26.1007   25.0426 H   0  0  0  0  0  0  0  0  0  0  0  0
  -12.8604  -20.1938   23.5970 H   0  0  0  0  0  0  0  0  0  0  0  0
  -11.7183  -20.7891   24.7127 H   0  0  0  0  0  0  0  0  0  0  0  0
  1  2  1  0
  2  3  1  0
  2  4  1  0
  2  5  1  0
  5  6  1  0
  6  7  2  0
  6  8  1  0
  8  9  1  0
  9 10  1  0
 10 11  1  0
 11 12  1  0
 12 13  1  0
 13 14  1  0
 14 15  2  0
 15 16  1  0
 16 17  2  0
 17 18  1  0
 18 19  2  0
 19 20  1  0
 20 21  2  0
 21 22  1  0
 12 23  1  0
 23  9  1  0
 22 14  1  0
 22 17  1  0
  1 24  1  0
  1 25  1  0
  1 26  1  0
  3 27  1  0
  3 28  1  0
  3 29  1  0
  4 30  1  0
  4 31  1  0
  4 32  1  0
  8 33  1  0
  9 34  1  0
 10 35  1  0
 10 36  1  0
 11 37  1  0
 11 38  1  0
 13 39  1  0
 13 40  1  0
 15 41  1  0
 18 42  1  0
 19 43  1  0
 20 44  1  0
 21 45  1  0
 23 46  1  0
 23 47  1  0
M  END
>  <Energy>  (1109) 
199.45385913872136

>  <compound_id>  (1109) 
59302

>  <target_id>  (1109) 
1

>  <reference_id>  (1109) 
70

>  <inspiration_ids>  (1109) 
[70, 52]

>  <energy_score>  (1109) 
180.1557707642864

>  <distance_score>  (1109) 
11.962785091200383

>  <path>  (1109) 
/opt/xchem-fragalysis-2/maxwin/BulkDock/SCRATCH/511024/C59302-P70/C59302-P70.minimised.mol

>  <scratch_subdir>  (1109) 
/opt/xchem-fragalysis-2/maxwin/BulkDock/SCRATCH/511024/C59302-P70

>  <fragmenstein_runtime>  (1109) 
56.26030945777893

>  <fragmenstein_outcome>  (1109) 
too moved

>  <fragmenstein_mode>  (1109) 
expansion

>  <fragmenstein_error>  (1109) 


$$$$
C59302-P52
     RDKit          3D

 47 49  0  0  0  0  0  0  0  0999 V2000
  -15.2596   -7.9338   27.9076 C   0  0  0  0  0  0  0  0  0  0  0  0
  -13.8984   -8.5457   27.5652 C   0  0  0  0  0  0  0  0  0  0  0  0
  -13.4658   -8.0532   26.1556 C   0  0  0  0  0  0  0  0  0  0  0  0
  -12.7913   -8.0446   28.5113 C   0  0  0  0  0  0  0  0  0  0  0  0
  -14.0025  -10.0225   27.5102 O   0  0  0  0  0  0  0  0  0  0  0  0
  -14.3670  -10.8198   28.5834 C   0  0  0  0  0  0  0  0  0  0  0  0
  -14.7533  -10.3709   29.6184 O   0  0  0  0  0  0  0  0  0  0  0  0
  -14.1022  -12.1721   28.1911 N   0  0  0  0  0  0  0  0  0  0  0  0
  -14.1286  -13.4308   28.9663 C   0  0  0  0  0  0  0  0  0  0  0  0
  -13.5584  -13.3944   30.3552 C   0  0  0  0  0  0  0  0  0  0  0  0
  -12.5527  -14.5623   30.5152 C   0  0  0  0  0  0  0  0  0  0  0  0
  -12.5968  -15.4578   29.3534 N   0  0  0  0  0  0  0  0  0  0  0  0
  -12.1007  -17.2363   28.8983 C   0  0  0  0  0  0  0  0  0  0  0  0
  -12.1055  -19.2247   29.3117 C   0  0  0  0  0  0  0  0  0  0  0  0
  -11.8866  -20.4073   28.4573 C   0  0  0  0  0  0  0  0  0  0  0  0
  -12.0838  -21.6409   28.9830 N   0  0  0  0  0  0  0  0  0  0  0  0
  -12.0016  -21.4491   30.2541 C   0  0  0  0  0  0  0  0  0  0  0  0
  -12.0465  -22.4469   31.2612 C   0  0  0  0  0  0  0  0  0  0  0  0
  -11.6856  -22.1590   32.5136 C   0  0  0  0  0  0  0  0  0  0  0  0
  -11.1950  -20.8478   32.8187 C   0  0  0  0  0  0  0  0  0  0  0  0
  -11.1460  -19.8931   31.8723 C   0  0  0  0  0  0  0  0  0  0  0  0
  -11.6614  -20.1182   30.5633 N   0  0  0  0  0  0  0  0  0  0  0  0
  -13.3211  -14.5716   28.3138 C   0  0  0  0  0  0  0  0  0  0  0  0
  -15.2535   -6.8459   27.7795 H   0  0  0  0  0  0  0  0  0  0  0  0
  -15.5468   -8.1380   28.9433 H   0  0  0  0  0  0  0  0  0  0  0  0
  -16.0452   -8.3542   27.2702 H   0  0  0  0  0  0  0  0  0  0  0  0
  -12.5271   -8.5290   25.8532 H   0  0  0  0  0  0  0  0  0  0  0  0
  -14.2115   -8.3468   25.4080 H   0  0  0  0  0  0  0  0  0  0  0  0
  -13.3470   -6.9656   26.1190 H   0  0  0  0  0  0  0  0  0  0  0  0
  -11.8120   -8.3895   28.1729 H   0  0  0  0  0  0  0  0  0  0  0  0
  -12.9365   -8.4334   29.5238 H   0  0  0  0  0  0  0  0  0  0  0  0
  -12.7749   -6.9509   28.5636 H   0  0  0  0  0  0  0  0  0  0  0  0
  -13.8651  -12.1892   27.2068 H   0  0  0  0  0  0  0  0  0  0  0  0
  -15.1865  -13.7155   29.0265 H   0  0  0  0  0  0  0  0  0  0  0  0
  -14.3788  -13.5170   31.0749 H   0  0  0  0  0  0  0  0  0  0  0  0
  -13.1059  -12.4354   30.6066 H   0  0  0  0  0  0  0  0  0  0  0  0
  -11.5787  -14.0933   30.6577 H   0  0  0  0  0  0  0  0  0  0  0  0
  -12.8845  -14.9955   31.4491 H   0  0  0  0  0  0  0  0  0  0  0  0
  -11.1395  -17.1450   28.4816 H   0  0  0  0  0  0  0  0  0  0  0  0
  -12.9000  -17.1463   28.3336 H   0  0  0  0  0  0  0  0  0  0  0  0
  -11.7100  -20.4505   27.3893 H   0  0  0  0  0  0  0  0  0  0  0  0
  -12.3626  -23.4402   30.9797 H   0  0  0  0  0  0  0  0  0  0  0  0
  -11.7297  -22.9013   33.3035 H   0  0  0  0  0  0  0  0  0  0  0  0
  -10.8944  -20.6795   33.8404 H   0  0  0  0  0  0  0  0  0  0  0  0
  -10.7389  -18.9398   32.1549 H   0  0  0  0  0  0  0  0  0  0  0  0
  -14.0830  -15.1124   27.7399 H   0  0  0  0  0  0  0  0  0  0  0  0
  -12.5742  -14.1407   27.6354 H   0  0  0  0  0  0  0  0  0  0  0  0
  1  2  1  0
  2  3  1  0
  2  4  1  0
  2  5  1  0
  5  6  1  0
  6  7  2  0
  6  8  1  0
  8  9  1  0
  9 10  1  0
 10 11  1  0
 11 12  1  0
 12 13  1  0
 13 14  1  0
 14 15  2  0
 15 16  1  0
 16 17  2  0
 17 18  1  0
 18 19  2  0
 19 20  1  0
 20 21  2  0
 21 22  1  0
 12 23  1  0
 23  9  1  0
 22 14  1  0
 22 17  1  0
  1 24  1  0
  1 25  1  0
  1 26  1  0
  3 27  1  0
  3 28  1  0
  3 29  1  0
  4 30  1  0
  4 31  1  0
  4 32  1  0
  8 33  1  0
  9 34  1  0
 10 35  1  0
 10 36  1  0
 11 37  1  0
 11 38  1  0
 13 39  1  0
 13 40  1  0
 15 41  1  0
 18 42  1  0
 19 43  1  0
 20 44  1  0
 21 45  1  0
 23 46  1  0
 23 47  1  0
M  END
>  <Energy>  (1110) 
255.73046492494868

>  <compound_id>  (1110) 
59302

>  <target_id>  (1110) 
1

>  <reference_id>  (1110) 
52

>  <inspiration_ids>  (1110) 
[70, 52]

>  <energy_score>  (1110) 
236.43237655051428

>  <distance_score>  (1110) 
10.691077954845486

>  <path>  (1110) 
/opt/xchem-fragalysis-2/maxwin/BulkDock/SCRATCH/511024/C59302-P52/C59302-P52.minimised.mol

>  <scratch_subdir>  (1110) 
/opt/xchem-fragalysis-2/maxwin/BulkDock/SCRATCH/511024/C59302-P52

>  <fragmenstein_runtime>  (1110) 
40.28193640708923

>  <fragmenstein_outcome>  (1110) 
too moved

>  <fragmenstein_mode>  (1110) 
expansion

>  <fragmenstein_error>  (1110) 


$$$$
C59303-P70
     RDKit          3D

 47 49  0  0  0  0  0  0  0  0999 V2000
   -6.9854   -6.1553   22.4263 C   0  0  0  0  0  0  0  0  0  0  0  0
   -7.3929   -6.5807   24.4054 C   0  0  0  0  0  0  0  0  0  0  0  0
   -7.9466   -4.6242   24.1680 C   0  0  0  0  0  0  0  0  0  0  0  0
   -8.4080   -5.6951   26.0169 C   0  0  0  0  0  0  0  0  0  0  0  0
   -8.6932   -8.1040   23.4904 O   0  0  0  0  0  0  0  0  0  0  0  0
   -9.8396   -9.7407   23.0357 C   0  0  0  0  0  0  0  0  0  0  0  0
  -10.3383   -9.6015   21.9351 O   0  0  0  0  0  0  0  0  0  0  0  0
  -10.1376  -11.4751   23.9972 N   0  0  0  0  0  0  0  0  0  0  0  0
  -11.0607  -13.3100   23.4501 C   0  0  0  0  0  0  0  0  0  0  0  0
  -12.5775  -14.2343   23.7688 C   0  0  0  0  0  0  0  0  0  0  0  0
  -12.6122  -16.1123   23.4431 C   0  0  0  0  0  0  0  0  0  0  0  0
  -11.3844  -17.3568   24.0143 N   0  0  0  0  0  0  0  0  0  0  0  0
  -11.8796  -19.4864   23.7272 C   0  0  0  0  0  0  0  0  0  0  0  0
  -11.9534  -21.0885   24.4589 C   0  0  0  0  0  0  0  0  0  0  0  0
  -12.3229  -22.3729   23.9022 C   0  0  0  0  0  0  0  0  0  0  0  0
  -12.1151  -23.3572   24.9254 N   0  0  0  0  0  0  0  0  0  0  0  0
  -12.1725  -24.7612   24.9170 C   0  0  0  0  0  0  0  0  0  0  0  0
  -11.7686  -25.4769   25.9871 C   0  0  0  0  0  0  0  0  0  0  0  0
  -11.3179  -24.7912   27.1843 C   0  0  0  0  0  0  0  0  0  0  0  0
  -11.3367  -23.4491   27.2361 C   0  0  0  0  0  0  0  0  0  0  0  0
  -11.7021  -22.6994   26.0806 C   0  0  0  0  0  0  0  0  0  0  0  0
  -11.5845  -21.4162   25.8460 N   0  0  0  0  0  0  0  0  0  0  0  0
  -10.6635  -15.4554   23.6064 C   0  0  0  0  0  0  0  0  0  0  0  0
   -6.7957   -5.1464   22.0135 H   0  0  0  0  0  0  0  0  0  0  0  0
   -7.6584   -6.7132   21.7413 H   0  0  0  0  0  0  0  0  0  0  0  0
   -5.9072   -6.5015   22.4547 H   0  0  0  0  0  0  0  0  0  0  0  0
   -9.0028   -4.3374   24.1726 H   0  0  0  0  0  0  0  0  0  0  0  0
   -8.0994   -3.8213   24.8869 H   0  0  0  0  0  0  0  0  0  0  0  0
   -7.2344   -3.9813   23.6869 H   0  0  0  0  0  0  0  0  0  0  0  0
   -8.6503   -4.6174   26.1195 H   0  0  0  0  0  0  0  0  0  0  0  0
   -7.7487   -5.7083   26.8971 H   0  0  0  0  0  0  0  0  0  0  0  0
   -9.4223   -5.7968   26.4415 H   0  0  0  0  0  0  0  0  0  0  0  0
   -9.7381  -11.4079   24.9233 H   0  0  0  0  0  0  0  0  0  0  0  0
  -11.0012  -13.3063   24.5687 H   0  0  0  0  0  0  0  0  0  0  0  0
  -13.3578  -13.8076   23.1302 H   0  0  0  0  0  0  0  0  0  0  0  0
  -12.8479  -14.1236   24.8268 H   0  0  0  0  0  0  0  0  0  0  0  0
  -13.5750  -16.4301   23.7940 H   0  0  0  0  0  0  0  0  0  0  0  0
  -12.5812  -16.1115   22.3512 H   0  0  0  0  0  0  0  0  0  0  0  0
  -11.1442  -19.9495   22.9357 H   0  0  0  0  0  0  0  0  0  0  0  0
  -12.9118  -19.5363   23.4332 H   0  0  0  0  0  0  0  0  0  0  0  0
  -12.6570  -22.6445   22.9173 H   0  0  0  0  0  0  0  0  0  0  0  0
  -12.5601  -25.2523   24.0480 H   0  0  0  0  0  0  0  0  0  0  0  0
  -11.8137  -26.5597   25.9983 H   0  0  0  0  0  0  0  0  0  0  0  0
  -11.0224  -25.3806   28.0459 H   0  0  0  0  0  0  0  0  0  0  0  0
  -11.0715  -22.8946   28.1228 H   0  0  0  0  0  0  0  0  0  0  0  0
   -9.8990  -15.4687   24.3957 H   0  0  0  0  0  0  0  0  0  0  0  0
  -10.1787  -15.6748   22.6436 H   0  0  0  0  0  0  0  0  0  0  0  0
  1  2  1  0
  2  3  1  0
  2  4  1  0
  2  5  1  0
  5  6  1  0
  6  7  2  0
  6  8  1  0
  8  9  1  0
  9 10  1  0
 10 11  1  0
 11 12  1  0
 12 13  1  0
 13 14  1  0
 14 15  2  0
 15 16  1  0
 16 17  1  0
 17 18  2  0
 18 19  1  0
 19 20  2  0
 20 21  1  0
 21 22  2  0
 12 23  1  0
 23  9  1  0
 22 14  1  0
 21 16  1  0
  1 24  1  0
  1 25  1  0
  1 26  1  0
  3 27  1  0
  3 28  1  0
  3 29  1  0
  4 30  1  0
  4 31  1  0
  4 32  1  0
  8 33  1  0
  9 34  1  0
 10 35  1  0
 10 36  1  0
 11 37  1  0
 11 38  1  0
 13 39  1  0
 13 40  1  0
 15 41  1  0
 17 42  1  0
 18 43  1  0
 19 44  1  0
 20 45  1  0
 23 46  1  0
 23 47  1  0
M  END
>  <Energy>  (1111) 
1844.9638083799368

>  <compound_id>  (1111) 
59303

>  <target_id>  (1111) 
1

>  <reference_id>  (1111) 
70

>  <inspiration_ids>  (1111) 
[70, 52]

>  <energy_score>  (1111) 
1795.3021661067853

>  <distance_score>  (1111) 
9.22025488183098

>  <path>  (1111) 
/opt/xchem-fragalysis-2/maxwin/BulkDock/SCRATCH/511024/C59303-P70/C59303-P70.minimised.mol

>  <scratch_subdir>  (1111) 
/opt/xchem-fragalysis-2/maxwin/BulkDock/SCRATCH/511024/C59303-P70

>  <fragmenstein_runtime>  (1111) 
52.56646490097046

>  <fragmenstein_outcome>  (1111) 
too moved

>  <fragmenstein_mode>  (1111) 
expansion

>  <fragmenstein_error>  (1111) 


$$$$
C59303-P52
     RDKit          3D

 47 49  0  0  0  0  0  0  0  0999 V2000
   -7.4347   -2.7557   28.2087 C   0  0  0  0  0  0  0  0  0  0  0  0
   -7.3955   -3.3630   26.5202 C   0  0  0  0  0  0  0  0  0  0  0  0
   -6.5704   -2.0386   25.9712 C   0  0  0  0  0  0  0  0  0  0  0  0
   -9.0406   -2.7203   25.9581 C   0  0  0  0  0  0  0  0  0  0  0  0
   -7.4036   -4.9837   25.3671 O   0  0  0  0  0  0  0  0  0  0  0  0
   -7.6373   -6.8608   24.7395 C   0  0  0  0  0  0  0  0  0  0  0  0
   -7.3497   -6.8999   23.5137 O   0  0  0  0  0  0  0  0  0  0  0  0
   -8.3539   -8.4369   25.7139 N   0  0  0  0  0  0  0  0  0  0  0  0
   -8.9124  -10.4073   25.1044 C   0  0  0  0  0  0  0  0  0  0  0  0
   -8.0552  -11.9786   26.1112 C   0  0  0  0  0  0  0  0  0  0  0  0
   -9.0797  -13.4599   26.6553 C   0  0  0  0  0  0  0  0  0  0  0  0
  -10.7487  -13.5414   26.5990 N   0  0  0  0  0  0  0  0  0  0  0  0
  -11.9981  -14.7361   27.7397 C   0  0  0  0  0  0  0  0  0  0  0  0
  -12.0361  -16.7383   28.6890 C   0  0  0  0  0  0  0  0  0  0  0  0
  -12.6803  -18.2787   29.2386 C   0  0  0  0  0  0  0  0  0  0  0  0
  -12.0992  -19.6012   29.6104 N   0  0  0  0  0  0  0  0  0  0  0  0
  -12.5846  -20.7845   30.2704 C   0  0  0  0  0  0  0  0  0  0  0  0
  -11.8935  -21.9249   30.1857 C   0  0  0  0  0  0  0  0  0  0  0  0
  -10.7863  -21.8729   29.2830 C   0  0  0  0  0  0  0  0  0  0  0  0
  -10.2695  -20.6728   28.9414 C   0  0  0  0  0  0  0  0  0  0  0  0
  -10.8034  -19.3943   29.4272 C   0  0  0  0  0  0  0  0  0  0  0  0
  -10.7134  -17.6944   29.0865 N   0  0  0  0  0  0  0  0  0  0  0  0
  -10.4422  -11.9177   25.4794 C   0  0  0  0  0  0  0  0  0  0  0  0
   -6.7284   -1.9645   28.4690 H   0  0  0  0  0  0  0  0  0  0  0  0
   -7.4317   -3.5184   28.9851 H   0  0  0  0  0  0  0  0  0  0  0  0
   -8.3606   -2.1774   28.3524 H   0  0  0  0  0  0  0  0  0  0  0  0
   -6.2394   -1.8833   24.9500 H   0  0  0  0  0  0  0  0  0  0  0  0
   -5.7844   -1.5597   26.5186 H   0  0  0  0  0  0  0  0  0  0  0  0
   -7.4164   -1.4283   26.0585 H   0  0  0  0  0  0  0  0  0  0  0  0
   -9.0105   -1.9553   25.1792 H   0  0  0  0  0  0  0  0  0  0  0  0
   -9.6298   -3.5500   25.5522 H   0  0  0  0  0  0  0  0  0  0  0  0
   -9.5524   -2.1879   26.7660 H   0  0  0  0  0  0  0  0  0  0  0  0
   -8.4343   -8.2141   26.6946 H   0  0  0  0  0  0  0  0  0  0  0  0
   -8.0977  -10.4203   24.3705 H   0  0  0  0  0  0  0  0  0  0  0  0
   -7.3156  -12.3755   25.4137 H   0  0  0  0  0  0  0  0  0  0  0  0
   -7.3025  -11.8269   26.9026 H   0  0  0  0  0  0  0  0  0  0  0  0
   -8.7379  -14.2865   26.0214 H   0  0  0  0  0  0  0  0  0  0  0  0
   -8.6629  -13.5831   27.6556 H   0  0  0  0  0  0  0  0  0  0  0  0
  -12.1183  -14.0928   28.6453 H   0  0  0  0  0  0  0  0  0  0  0  0
  -12.9679  -14.5139   27.2428 H   0  0  0  0  0  0  0  0  0  0  0  0
  -13.7643  -18.5628   29.4335 H   0  0  0  0  0  0  0  0  0  0  0  0
  -13.5200  -20.7587   30.8222 H   0  0  0  0  0  0  0  0  0  0  0  0
  -12.2021  -22.8480   30.6599 H   0  0  0  0  0  0  0  0  0  0  0  0
  -10.3990  -22.7949   28.8617 H   0  0  0  0  0  0  0  0  0  0  0  0
   -9.5252  -20.6642   28.1837 H   0  0  0  0  0  0  0  0  0  0  0  0
  -10.6898  -12.4166   24.5455 H   0  0  0  0  0  0  0  0  0  0  0  0
  -11.4732  -11.4767   25.4974 H   0  0  0  0  0  0  0  0  0  0  0  0
  1  2  1  0
  2  3  1  0
  2  4  1  0
  2  5  1  0
  5  6  1  0
  6  7  2  0
  6  8  1  0
  8  9  1  0
  9 10  1  0
 10 11  1  0
 11 12  1  0
 12 13  1  0
 13 14  1  0
 14 15  2  0
 15 16  1  0
 16 17  1  0
 17 18  2  0
 18 19  1  0
 19 20  2  0
 20 21  1  0
 21 22  2  0
 12 23  1  0
 23  9  1  0
 22 14  1  0
 21 16  1  0
  1 24  1  0
  1 25  1  0
  1 26  1  0
  3 27  1  0
  3 28  1  0
  3 29  1  0
  4 30  1  0
  4 31  1  0
  4 32  1  0
  8 33  1  0
  9 34  1  0
 10 35  1  0
 10 36  1  0
 11 37  1  0
 11 38  1  0
 13 39  1  0
 13 40  1  0
 15 41  1  0
 17 42  1  0
 18 43  1  0
 19 44  1  0
 20 45  1  0
 23 46  1  0
 23 47  1  0
M  END
>  <Energy>  (1112) 
1661.6335492580724

>  <compound_id>  (1112) 
59303

>  <target_id>  (1112) 
1

>  <reference_id>  (1112) 
52

>  <inspiration_ids>  (1112) 
[70, 52]

>  <energy_score>  (1112) 
1611.9719069849189

>  <distance_score>  (1112) 
8.09149130055414

>  <path>  (1112) 
/opt/xchem-fragalysis-2/maxwin/BulkDock/SCRATCH/511024/C59303-P52/C59303-P52.minimised.mol

>  <scratch_subdir>  (1112) 
/opt/xchem-fragalysis-2/maxwin/BulkDock/SCRATCH/511024/C59303-P52

>  <fragmenstein_runtime>  (1112) 
41.88602352142334

>  <fragmenstein_outcome>  (1112) 
too moved

>  <fragmenstein_mode>  (1112) 
expansion

>  <fragmenstein_error>  (1112) 


$$$$
C49543-P49
     RDKit          3D

 48 50  0  0  0  0  0  0  0  0999 V2000
  -17.0509   -5.5288   13.7938 C   0  0  0  0  0  0  0  0  0  0  0  0
  -15.5034   -5.4742   12.8385 N   0  0  0  0  0  0  0  0  0  0  0  0
  -15.2760   -6.8080   14.1096 C   0  0  0  0  0  0  0  0  0  0  0  0
  -15.8913   -8.2646   13.6906 C   0  0  0  0  0  0  0  0  0  0  0  0
  -16.2331   -9.2839   14.7517 N   0  0  0  0  0  0  0  0  0  0  0  0
  -16.7712  -10.6729   14.6338 C   0  0  0  0  0  0  0  0  0  0  0  0
  -16.9888  -11.3462   13.6606 O   0  0  0  0  0  0  0  0  0  0  0  0
  -17.1903  -11.2861   16.0503 C   0  0  0  0  0  0  0  0  0  0  0  0
  -17.0842  -12.8275   16.2654 C   0  0  0  0  0  0  0  0  0  0  0  0
  -15.9056  -13.4238   16.0487 N   0  0  0  0  0  0  0  0  0  0  0  0
  -16.0978  -14.7218   16.3280 N   0  0  0  0  0  0  0  0  0  0  0  0
  -17.2664  -14.9789   16.9498 C   0  0  0  0  0  0  0  0  0  0  0  0
  -18.0151  -13.8383   16.7359 C   0  0  0  0  0  0  0  0  0  0  0  0
  -19.4900  -13.8849   16.8757 C   0  0  0  0  0  0  0  0  0  0  0  0
  -20.0264  -15.1917   17.5143 C   0  0  0  0  0  0  0  0  0  0  0  0
  -19.1747  -16.4644   17.3343 C   0  0  0  0  0  0  0  0  0  0  0  0
  -17.6803  -16.2622   17.5714 C   0  0  0  0  0  0  0  0  0  0  0  0
  -14.2814   -3.6087   12.5217 C   0  0  0  0  0  0  0  0  0  0  0  0
  -13.3015   -3.1648   13.2649 O   0  0  0  0  0  0  0  0  0  0  0  0
  -14.6465   -2.3631   11.1913 C   0  0  0  0  0  0  0  0  0  0  0  0
  -15.2797   -1.1662   11.5413 C   0  0  0  0  0  0  0  0  0  0  0  0
  -15.4104   -0.1286   10.6132 C   0  0  0  0  0  0  0  0  0  0  0  0
  -14.8754   -0.2802    9.3490 C   0  0  0  0  0  0  0  0  0  0  0  0
  -14.2410   -1.3943    8.9580 N   0  0  0  0  0  0  0  0  0  0  0  0
  -14.1258   -2.3809    9.8876 C   0  0  0  0  0  0  0  0  0  0  0  0
  -17.5127   -6.4966   13.5987 H   0  0  0  0  0  0  0  0  0  0  0  0
  -16.9888   -5.3356   14.8704 H   0  0  0  0  0  0  0  0  0  0  0  0
  -17.8086   -4.8720   13.3424 H   0  0  0  0  0  0  0  0  0  0  0  0
  -14.2028   -7.0551   14.1546 H   0  0  0  0  0  0  0  0  0  0  0  0
  -15.5359   -6.5026   15.1334 H   0  0  0  0  0  0  0  0  0  0  0  0
  -15.1499   -8.7563   13.0478 H   0  0  0  0  0  0  0  0  0  0  0  0
  -16.7785   -8.1799   13.0584 H   0  0  0  0  0  0  0  0  0  0  0  0
  -16.2577   -8.9990   15.7242 H   0  0  0  0  0  0  0  0  0  0  0  0
  -16.5747  -10.8152   16.8265 H   0  0  0  0  0  0  0  0  0  0  0  0
  -18.2310  -10.9871   16.2228 H   0  0  0  0  0  0  0  0  0  0  0  0
  -15.3535  -15.3695   16.1089 H   0  0  0  0  0  0  0  0  0  0  0  0
  -19.8815  -13.0043   17.3910 H   0  0  0  0  0  0  0  0  0  0  0  0
  -19.9037  -13.8289   15.8589 H   0  0  0  0  0  0  0  0  0  0  0  0
  -21.0267  -15.3854   17.1044 H   0  0  0  0  0  0  0  0  0  0  0  0
  -20.2097  -15.0083   18.5656 H   0  0  0  0  0  0  0  0  0  0  0  0
  -19.5543  -17.2636   17.9812 H   0  0  0  0  0  0  0  0  0  0  0  0
  -19.3161  -16.8111   16.3013 H   0  0  0  0  0  0  0  0  0  0  0  0
  -17.4833  -16.2441   18.6469 H   0  0  0  0  0  0  0  0  0  0  0  0
  -17.1290  -17.1071   17.1476 H   0  0  0  0  0  0  0  0  0  0  0  0
  -15.6975   -1.0366   12.5308 H   0  0  0  0  0  0  0  0  0  0  0  0
  -15.9241    0.7881   10.8774 H   0  0  0  0  0  0  0  0  0  0  0  0
  -14.9505    0.5090    8.6070 H   0  0  0  0  0  0  0  0  0  0  0  0
  -13.5064   -3.1876    9.5253 H   0  0  0  0  0  0  0  0  0  0  0  0
  1  2  1  0
  2  3  1  0
  3  4  1  0
  4  5  1  0
  5  6  1  0
  6  7  2  0
  6  8  1  0
  8  9  1  0
  9 10  2  0
 10 11  1  0
 11 12  1  0
 12 13  2  0
 13 14  1  0
 14 15  1  0
 15 16  1  0
 16 17  1  0
  2 18  1  0
 18 19  2  0
 18 20  1  0
 20 21  2  0
 21 22  1  0
 22 23  2  0
 23 24  1  0
 24 25  2  0
 13  9  1  0
 25 20  1  0
 17 12  1  0
  1 26  1  0
  1 27  1  0
  1 28  1  0
  3 29  1  0
  3 30  1  0
  4 31  1  0
  4 32  1  0
  5 33  1  0
  8 34  1  0
  8 35  1  0
 11 36  1  0
 14 37  1  0
 14 38  1  0
 15 39  1  0
 15 40  1  0
 16 41  1  0
 16 42  1  0
 17 43  1  0
 17 44  1  0
 21 45  1  0
 22 46  1  0
 23 47  1  0
 25 48  1  0
M  END
>  <Energy>  (1113) 
646.20935553558559

>  <compound_id>  (1113) 
49543

>  <target_id>  (1113) 
1

>  <reference_id>  (1113) 
49

>  <inspiration_ids>  (1113) 
[49, 127]

>  <energy_score>  (1113) 
545.8857358735901

>  <distance_score>  (1113) 
13.74450932600517

>  <path>  (1113) 
/opt/xchem-fragalysis-2/maxwin/BulkDock/SCRATCH/511024/C49543-P49/C49543-P49.minimised.mol

>  <scratch_subdir>  (1113) 
/opt/xchem-fragalysis-2/maxwin/BulkDock/SCRATCH/511024/C49543-P49

>  <fragmenstein_runtime>  (1113) 
41.64635157585144

>  <fragmenstein_outcome>  (1113) 
too moved

>  <fragmenstein_mode>  (1113) 
expansion

>  <fragmenstein_error>  (1113) 


$$$$
C49543-P127
     RDKit          3D

 48 50  0  0  0  0  0  0  0  0999 V2000
  -15.2746   -9.2096   19.2925 C   0  0  0  0  0  0  0  0  0  0  0  0
  -16.6728   -8.8559   19.2515 N   0  0  0  0  0  0  0  0  0  0  0  0
  -16.7742  -10.0847   20.3512 C   0  0  0  0  0  0  0  0  0  0  0  0
  -15.9637  -10.2683   21.8035 C   0  0  0  0  0  0  0  0  0  0  0  0
  -15.9437  -11.7567   22.6214 N   0  0  0  0  0  0  0  0  0  0  0  0
  -15.2760  -12.2395   24.2135 C   0  0  0  0  0  0  0  0  0  0  0  0
  -14.6633  -11.4653   24.8343 O   0  0  0  0  0  0  0  0  0  0  0  0
  -15.3951  -14.1926   24.9614 C   0  0  0  0  0  0  0  0  0  0  0  0
  -15.5398  -15.8551   26.0489 C   0  0  0  0  0  0  0  0  0  0  0  0
  -16.4005  -16.7822   25.6008 N   0  0  0  0  0  0  0  0  0  0  0  0
  -16.8106  -17.0375   26.8204 N   0  0  0  0  0  0  0  0  0  0  0  0
  -16.2353  -18.0369   27.3885 C   0  0  0  0  0  0  0  0  0  0  0  0
  -14.9941  -17.2182   27.2658 C   0  0  0  0  0  0  0  0  0  0  0  0
  -13.4164  -18.1660   28.2028 C   0  0  0  0  0  0  0  0  0  0  0  0
  -14.0421  -19.9863   28.6655 C   0  0  0  0  0  0  0  0  0  0  0  0
  -15.9371  -19.9144   29.2116 C   0  0  0  0  0  0  0  0  0  0  0  0
  -16.8958  -18.8266   28.4976 C   0  0  0  0  0  0  0  0  0  0  0  0
  -17.1226   -8.7796   17.8815 C   0  0  0  0  0  0  0  0  0  0  0  0
  -17.6052   -9.6232   17.1685 O   0  0  0  0  0  0  0  0  0  0  0  0
  -16.8574   -7.4534   17.1650 C   0  0  0  0  0  0  0  0  0  0  0  0
  -16.5080   -6.2481   17.7735 C   0  0  0  0  0  0  0  0  0  0  0  0
  -16.1714   -5.1314   16.9863 C   0  0  0  0  0  0  0  0  0  0  0  0
  -16.1672   -5.2483   15.6026 C   0  0  0  0  0  0  0  0  0  0  0  0
  -16.4587   -6.3935   14.9593 N   0  0  0  0  0  0  0  0  0  0  0  0
  -16.7992   -7.4546   15.7576 C   0  0  0  0  0  0  0  0  0  0  0  0
  -14.8132   -8.7750   20.1824 H   0  0  0  0  0  0  0  0  0  0  0  0
  -14.7721   -8.6334   18.4987 H   0  0  0  0  0  0  0  0  0  0  0  0
  -15.0723  -10.2335   18.9697 H   0  0  0  0  0  0  0  0  0  0  0  0
  -16.7263  -11.0290   19.7888 H   0  0  0  0  0  0  0  0  0  0  0  0
  -17.8299   -9.9690   20.6222 H   0  0  0  0  0  0  0  0  0  0  0  0
  -16.3351   -9.4912   22.4679 H   0  0  0  0  0  0  0  0  0  0  0  0
  -14.9349  -10.1636   21.4942 H   0  0  0  0  0  0  0  0  0  0  0  0
  -16.3601  -12.5600   22.1925 H   0  0  0  0  0  0  0  0  0  0  0  0
  -15.7776  -14.7967   24.1518 H   0  0  0  0  0  0  0  0  0  0  0  0
  -14.3558  -14.3403   25.3094 H   0  0  0  0  0  0  0  0  0  0  0  0
  -17.0472  -16.2569   27.4446 H   0  0  0  0  0  0  0  0  0  0  0  0
  -13.1222  -17.4508   29.0136 H   0  0  0  0  0  0  0  0  0  0  0  0
  -12.4305  -18.2128   27.7958 H   0  0  0  0  0  0  0  0  0  0  0  0
  -13.7159  -20.7793   27.9754 H   0  0  0  0  0  0  0  0  0  0  0  0
  -13.3765  -20.7175   29.2212 H   0  0  0  0  0  0  0  0  0  0  0  0
  -16.1637  -19.7667   30.2866 H   0  0  0  0  0  0  0  0  0  0  0  0
  -16.4146  -20.9011   29.3752 H   0  0  0  0  0  0  0  0  0  0  0  0
  -17.8307  -19.2805   28.1327 H   0  0  0  0  0  0  0  0  0  0  0  0
  -17.2844  -18.1283   29.2518 H   0  0  0  0  0  0  0  0  0  0  0  0
  -16.4996   -6.1679   18.8573 H   0  0  0  0  0  0  0  0  0  0  0  0
  -15.9346   -4.1839   17.4581 H   0  0  0  0  0  0  0  0  0  0  0  0
  -15.9426   -4.4015   14.9646 H   0  0  0  0  0  0  0  0  0  0  0  0
  -17.0170   -8.3664   15.2026 H   0  0  0  0  0  0  0  0  0  0  0  0
  1  2  1  0
  2  3  1  0
  3  4  1  0
  4  5  1  0
  5  6  1  0
  6  7  2  0
  6  8  1  0
  8  9  1  0
  9 10  2  0
 10 11  1  0
 11 12  1  0
 12 13  2  0
 13 14  1  0
 14 15  1  0
 15 16  1  0
 16 17  1  0
  2 18  1  0
 18 19  2  0
 18 20  1  0
 20 21  2  0
 21 22  1  0
 22 23  2  0
 23 24  1  0
 24 25  2  0
 13  9  1  0
 25 20  1  0
 17 12  1  0
  1 26  1  0
  1 27  1  0
  1 28  1  0
  3 29  1  0
  3 30  1  0
  4 31  1  0
  4 32  1  0
  5 33  1  0
  8 34  1  0
  8 35  1  0
 11 36  1  0
 14 37  1  0
 14 38  1  0
 15 39  1  0
 15 40  1  0
 16 41  1  0
 16 42  1  0
 17 43  1  0
 17 44  1  0
 21 45  1  0
 22 46  1  0
 23 47  1  0
 25 48  1  0
M  END
>  <Energy>  (1114) 
832.85298902864076

>  <compound_id>  (1114) 
49543

>  <target_id>  (1114) 
1

>  <reference_id>  (1114) 
127

>  <inspiration_ids>  (1114) 
[49, 127]

>  <energy_score>  (1114) 
732.5293693666426

>  <distance_score>  (1114) 
11.306856269285657

>  <path>  (1114) 
/opt/xchem-fragalysis-2/maxwin/BulkDock/SCRATCH/511024/C49543-P127/C49543-P127.minimised.mol

>  <scratch_subdir>  (1114) 
/opt/xchem-fragalysis-2/maxwin/BulkDock/SCRATCH/511024/C49543-P127

>  <fragmenstein_runtime>  (1114) 
37.18390464782715

>  <fragmenstein_outcome>  (1114) 
too moved

>  <fragmenstein_mode>  (1114) 
expansion

>  <fragmenstein_error>  (1114) 


$$$$
C5293-P49
     RDKit          3D

 38 39  0  0  0  0  0  0  0  0999 V2000
   -5.7723  -17.6356   15.4148 C   0  0  0  0  0  0  0  0  0  0  0  0
   -6.2566  -18.0915   16.7244 N   0  0  0  0  0  0  0  0  0  0  0  0
   -7.6789  -17.8454   16.0203 C   0  0  0  0  0  0  0  0  0  0  0  0
   -8.1977  -16.7439   14.9254 C   0  0  0  0  0  0  0  0  0  0  0  0
   -8.6888  -15.4023   15.2983 N   0  0  0  0  0  0  0  0  0  0  0  0
   -8.8982  -14.1913   14.4837 C   0  0  0  0  0  0  0  0  0  0  0  0
   -8.6454  -13.9721   13.3292 O   0  0  0  0  0  0  0  0  0  0  0  0
   -9.5833  -13.0590   15.3311 C   0  0  0  0  0  0  0  0  0  0  0  0
  -10.0384  -11.7840   14.5916 C   0  0  0  0  0  0  0  0  0  0  0  0
  -10.7902  -10.7095   15.0478 C   0  0  0  0  0  0  0  0  0  0  0  0
  -10.8998   -9.8224   13.9601 C   0  0  0  0  0  0  0  0  0  0  0  0
  -10.2645  -10.2770   12.8799 N   0  0  0  0  0  0  0  0  0  0  0  0
   -9.7586  -11.4687   13.2812 N   0  0  0  0  0  0  0  0  0  0  0  0
   -6.2191  -19.4086   17.3424 C   0  0  0  0  0  0  0  0  0  0  0  0
   -5.8621  -20.4726   16.8955 O   0  0  0  0  0  0  0  0  0  0  0  0
   -6.5654  -19.5493   18.8275 C   0  0  0  0  0  0  0  0  0  0  0  0
   -7.0099  -20.7891   19.3417 C   0  0  0  0  0  0  0  0  0  0  0  0
   -7.0909  -21.0346   20.7234 C   0  0  0  0  0  0  0  0  0  0  0  0
   -6.7095  -20.0264   21.5866 C   0  0  0  0  0  0  0  0  0  0  0  0
   -6.2559  -18.8303   21.1579 N   0  0  0  0  0  0  0  0  0  0  0  0
   -6.2001  -18.6240   19.7995 C   0  0  0  0  0  0  0  0  0  0  0  0
   -6.0602  -18.2595   14.5552 H   0  0  0  0  0  0  0  0  0  0  0  0
   -4.6895  -17.8239   15.4722 H   0  0  0  0  0  0  0  0  0  0  0  0
   -5.8203  -16.5479   15.2899 H   0  0  0  0  0  0  0  0  0  0  0  0
   -7.9731  -18.8315   15.6231 H   0  0  0  0  0  0  0  0  0  0  0  0
   -8.3295  -17.6678   16.8667 H   0  0  0  0  0  0  0  0  0  0  0  0
   -9.0968  -17.2055   14.4938 H   0  0  0  0  0  0  0  0  0  0  0  0
   -7.5265  -16.6231   14.0693 H   0  0  0  0  0  0  0  0  0  0  0  0
   -9.1002  -15.2603   16.2180 H   0  0  0  0  0  0  0  0  0  0  0  0
   -8.8741  -12.7556   16.1095 H   0  0  0  0  0  0  0  0  0  0  0  0
  -10.4658  -13.4936   15.8163 H   0  0  0  0  0  0  0  0  0  0  0  0
  -11.2061  -10.6020   16.0400 H   0  0  0  0  0  0  0  0  0  0  0  0
  -11.4134   -8.8719   13.9104 H   0  0  0  0  0  0  0  0  0  0  0  0
   -9.2321  -12.0351   12.6184 H   0  0  0  0  0  0  0  0  0  0  0  0
   -7.2618  -21.5914   18.6506 H   0  0  0  0  0  0  0  0  0  0  0  0
   -7.4436  -21.9873   21.0992 H   0  0  0  0  0  0  0  0  0  0  0  0
   -6.7606  -20.1497   22.6623 H   0  0  0  0  0  0  0  0  0  0  0  0
   -5.7858  -17.6626   19.5198 H   0  0  0  0  0  0  0  0  0  0  0  0
  1  2  1  0
  2  3  1  0
  3  4  1  0
  4  5  1  0
  5  6  1  0
  6  7  2  0
  6  8  1  0
  8  9  1  0
  9 10  2  0
 10 11  1  0
 11 12  2  0
 12 13  1  0
  2 14  1  0
 14 15  2  0
 14 16  1  0
 16 17  2  0
 17 18  1  0
 18 19  2  0
 19 20  1  0
 20 21  2  0
 13  9  1  0
 21 16  1  0
  1 22  1  0
  1 23  1  0
  1 24  1  0
  3 25  1  0
  3 26  1  0
  4 27  1  0
  4 28  1  0
  5 29  1  0
  8 30  1  0
  8 31  1  0
 10 32  1  0
 11 33  1  0
 13 34  1  0
 17 35  1  0
 18 36  1  0
 19 37  1  0
 21 38  1  0
M  END
>  <Energy>  (1115) 
151.82176048863681

>  <compound_id>  (1115) 
5293

>  <target_id>  (1115) 
1

>  <reference_id>  (1115) 
49

>  <inspiration_ids>  (1115) 
[49, 127]

>  <energy_score>  (1115) 
76.33179286265181

>  <distance_score>  (1115) 
15.440906018448707

>  <path>  (1115) 
/opt/xchem-fragalysis-2/maxwin/BulkDock/SCRATCH/511024/C5293-P49/C5293-P49.minimised.mol

>  <scratch_subdir>  (1115) 
/opt/xchem-fragalysis-2/maxwin/BulkDock/SCRATCH/511024/C5293-P49

>  <fragmenstein_runtime>  (1115) 
39.69978713989258

>  <fragmenstein_outcome>  (1115) 
too moved

>  <fragmenstein_mode>  (1115) 
expansion

>  <fragmenstein_error>  (1115) 


$$$$
C5293-P127
     RDKit          3D

 38 39  0  0  0  0  0  0  0  0999 V2000
  -19.1093  -10.6522   23.2350 C   0  0  0  0  0  0  0  0  0  0  0  0
  -18.0884  -11.5408   23.8242 N   0  0  0  0  0  0  0  0  0  0  0  0
  -17.2663  -11.0661   22.5233 C   0  0  0  0  0  0  0  0  0  0  0  0
  -17.0050   -9.5327   22.1326 C   0  0  0  0  0  0  0  0  0  0  0  0
  -16.2144   -9.2355   20.9230 N   0  0  0  0  0  0  0  0  0  0  0  0
  -16.5728   -8.5201   19.6951 C   0  0  0  0  0  0  0  0  0  0  0  0
  -17.6228   -8.0671   19.3340 O   0  0  0  0  0  0  0  0  0  0  0  0
  -15.3075   -8.3195   18.7952 C   0  0  0  0  0  0  0  0  0  0  0  0
  -15.4386   -7.2989   17.6607 C   0  0  0  0  0  0  0  0  0  0  0  0
  -15.9685   -6.0235   17.5802 C   0  0  0  0  0  0  0  0  0  0  0  0
  -15.7366   -5.5955   16.2562 C   0  0  0  0  0  0  0  0  0  0  0  0
  -15.0680   -6.5045   15.5409 N   0  0  0  0  0  0  0  0  0  0  0  0
  -14.9302   -7.5343   16.4026 N   0  0  0  0  0  0  0  0  0  0  0  0
  -17.2834  -11.3916   25.0068 C   0  0  0  0  0  0  0  0  0  0  0  0
  -17.1736  -10.4626   25.7656 O   0  0  0  0  0  0  0  0  0  0  0  0
  -16.5239  -12.6426   25.4378 C   0  0  0  0  0  0  0  0  0  0  0  0
  -15.4628  -12.5941   26.3615 C   0  0  0  0  0  0  0  0  0  0  0  0
  -14.9767  -13.7655   26.9706 C   0  0  0  0  0  0  0  0  0  0  0  0
  -15.5829  -14.9704   26.6603 C   0  0  0  0  0  0  0  0  0  0  0  0
  -16.5987  -15.0743   25.7772 N   0  0  0  0  0  0  0  0  0  0  0  0
  -17.0529  -13.9139   25.2109 C   0  0  0  0  0  0  0  0  0  0  0  0
  -19.4286  -10.8377   22.1995 H   0  0  0  0  0  0  0  0  0  0  0  0
  -20.0111  -10.9239   23.8056 H   0  0  0  0  0  0  0  0  0  0  0  0
  -18.9791   -9.6062   23.5365 H   0  0  0  0  0  0  0  0  0  0  0  0
  -16.2694  -11.4793   22.6919 H   0  0  0  0  0  0  0  0  0  0  0  0
  -17.6395  -11.6315   21.6537 H   0  0  0  0  0  0  0  0  0  0  0  0
  -16.5290   -9.0154   22.9703 H   0  0  0  0  0  0  0  0  0  0  0  0
  -17.9469   -9.0117   21.9383 H   0  0  0  0  0  0  0  0  0  0  0  0
  -15.2443   -9.5481   20.8566 H   0  0  0  0  0  0  0  0  0  0  0  0
  -15.0567   -9.2993   18.3721 H   0  0  0  0  0  0  0  0  0  0  0  0
  -14.4800   -7.9889   19.4341 H   0  0  0  0  0  0  0  0  0  0  0  0
  -16.4753   -5.4824   18.3676 H   0  0  0  0  0  0  0  0  0  0  0  0
  -16.0194   -4.6566   15.7969 H   0  0  0  0  0  0  0  0  0  0  0  0
  -14.4669   -8.3744   16.0716 H   0  0  0  0  0  0  0  0  0  0  0  0
  -15.0478  -11.6301   26.6488 H   0  0  0  0  0  0  0  0  0  0  0  0
  -14.1716  -13.7248   27.6955 H   0  0  0  0  0  0  0  0  0  0  0  0
  -15.2768  -15.8987   27.1338 H   0  0  0  0  0  0  0  0  0  0  0  0
  -17.9234  -14.0488   24.5733 H   0  0  0  0  0  0  0  0  0  0  0  0
  1  2  1  0
  2  3  1  0
  3  4  1  0
  4  5  1  0
  5  6  1  0
  6  7  2  0
  6  8  1  0
  8  9  1  0
  9 10  2  0
 10 11  1  0
 11 12  2  0
 12 13  1  0
  2 14  1  0
 14 15  2  0
 14 16  1  0
 16 17  2  0
 17 18  1  0
 18 19  2  0
 19 20  1  0
 20 21  2  0
 13  9  1  0
 21 16  1  0
  1 22  1  0
  1 23  1  0
  1 24  1  0
  3 25  1  0
  3 26  1  0
  4 27  1  0
  4 28  1  0
  5 29  1  0
  8 30  1  0
  8 31  1  0
 10 32  1  0
 11 33  1  0
 13 34  1  0
 17 35  1  0
 18 36  1  0
 19 37  1  0
 21 38  1  0
M  END
>  <Energy>  (1116) 
142.41029287563904

>  <compound_id>  (1116) 
5293

>  <target_id>  (1116) 
1

>  <reference_id>  (1116) 
127

>  <inspiration_ids>  (1116) 
[49, 127]

>  <energy_score>  (1116) 
66.92032524965089

>  <distance_score>  (1116) 
15.20718999426829

>  <path>  (1116) 
/opt/xchem-fragalysis-2/maxwin/BulkDock/SCRATCH/511024/C5293-P127/C5293-P127.minimised.mol

>  <scratch_subdir>  (1116) 
/opt/xchem-fragalysis-2/maxwin/BulkDock/SCRATCH/511024/C5293-P127

>  <fragmenstein_runtime>  (1116) 
32.78086066246033

>  <fragmenstein_outcome>  (1116) 
too moved

>  <fragmenstein_mode>  (1116) 
expansion

>  <fragmenstein_error>  (1116) 


$$$$
C5294-P49
     RDKit          3D

 40 41  0  0  0  0  0  0  0  0999 V2000
  -13.1019   -4.7642   25.8428 C   0  0  0  0  0  0  0  0  0  0  0  0
  -14.0932   -5.5237   24.9961 N   0  0  0  0  0  0  0  0  0  0  0  0
  -13.9949   -4.2586   24.1387 C   0  0  0  0  0  0  0  0  0  0  0  0
  -14.6204   -4.5373   22.7293 C   0  0  0  0  0  0  0  0  0  0  0  0
  -13.9833   -3.7801   21.6531 N   0  0  0  0  0  0  0  0  0  0  0  0
  -13.4592   -4.2103   20.3682 C   0  0  0  0  0  0  0  0  0  0  0  0
  -13.3456   -5.3057   19.8991 O   0  0  0  0  0  0  0  0  0  0  0  0
  -12.9745   -2.9628   19.5843 C   0  0  0  0  0  0  0  0  0  0  0  0
  -12.2985   -3.2634   18.2726 C   0  0  0  0  0  0  0  0  0  0  0  0
  -12.6600   -4.0287   17.1831 C   0  0  0  0  0  0  0  0  0  0  0  0
  -11.6274   -3.8526   16.2422 C   0  0  0  0  0  0  0  0  0  0  0  0
  -10.6695   -3.0452   16.6941 N   0  0  0  0  0  0  0  0  0  0  0  0
  -11.0711   -2.7472   17.9409 N   0  0  0  0  0  0  0  0  0  0  0  0
  -13.6261   -6.8379   24.7589 C   0  0  0  0  0  0  0  0  0  0  0  0
  -12.9551   -7.2771   23.8649 O   0  0  0  0  0  0  0  0  0  0  0  0
  -13.9902   -7.8655   25.7994 C   0  0  0  0  0  0  0  0  0  0  0  0
  -13.4786   -9.1387   25.6068 C   0  0  0  0  0  0  0  0  0  0  0  0
  -13.8682  -10.1872   26.4141 C   0  0  0  0  0  0  0  0  0  0  0  0
  -14.6443   -9.9618   27.5349 C   0  0  0  0  0  0  0  0  0  0  0  0
  -14.9556  -10.9764   28.4444 N   0  0  0  0  0  0  0  0  0  0  0  0
  -15.1086   -8.7345   27.8039 N   0  0  0  0  0  0  0  0  0  0  0  0
  -14.7974   -7.7256   26.9181 C   0  0  0  0  0  0  0  0  0  0  0  0
  -12.0892   -4.7176   25.4167 H   0  0  0  0  0  0  0  0  0  0  0  0
  -12.9592   -5.3756   26.7461 H   0  0  0  0  0  0  0  0  0  0  0  0
  -13.4663   -3.8065   26.2443 H   0  0  0  0  0  0  0  0  0  0  0  0
  -12.9641   -3.9592   23.8839 H   0  0  0  0  0  0  0  0  0  0  0  0
  -14.5646   -3.4307   24.5861 H   0  0  0  0  0  0  0  0  0  0  0  0
  -15.6829   -4.2726   22.7346 H   0  0  0  0  0  0  0  0  0  0  0  0
  -14.5450   -5.5947   22.4582 H   0  0  0  0  0  0  0  0  0  0  0  0
  -14.0035   -2.7681   21.6802 H   0  0  0  0  0  0  0  0  0  0  0  0
  -12.2874   -2.4024   20.2303 H   0  0  0  0  0  0  0  0  0  0  0  0
  -13.8483   -2.3305   19.3854 H   0  0  0  0  0  0  0  0  0  0  0  0
  -13.5380   -4.6528   17.1078 H   0  0  0  0  0  0  0  0  0  0  0  0
  -11.5184   -4.2800   15.2547 H   0  0  0  0  0  0  0  0  0  0  0  0
  -10.4630   -2.1644   18.5063 H   0  0  0  0  0  0  0  0  0  0  0  0
  -12.7923   -9.3466   24.7874 H   0  0  0  0  0  0  0  0  0  0  0  0
  -13.4297  -11.1187   26.1166 H   0  0  0  0  0  0  0  0  0  0  0  0
  -15.5164  -10.5313   29.1687 H   0  0  0  0  0  0  0  0  0  0  0  0
  -15.5027  -11.6962   27.9863 H   0  0  0  0  0  0  0  0  0  0  0  0
  -15.2480   -6.7674   27.1608 H   0  0  0  0  0  0  0  0  0  0  0  0
  1  2  1  0
  2  3  1  0
  3  4  1  0
  4  5  1  0
  5  6  1  0
  6  7  2  0
  6  8  1  0
  8  9  1  0
  9 10  2  0
 10 11  1  0
 11 12  2  0
 12 13  1  0
  2 14  1  0
 14 15  2  0
 14 16  1  0
 16 17  2  0
 17 18  1  0
 18 19  2  0
 19 20  1  0
 19 21  1  0
 21 22  2  0
 13  9  1  0
 22 16  1  0
  1 23  1  0
  1 24  1  0
  1 25  1  0
  3 26  1  0
  3 27  1  0
  4 28  1  0
  4 29  1  0
  5 30  1  0
  8 31  1  0
  8 32  1  0
 10 33  1  0
 11 34  1  0
 13 35  1  0
 17 36  1  0
 18 37  1  0
 20 38  1  0
 20 39  1  0
 22 40  1  0
M  END
>  <Energy>  (1117) 
82.405249507772538

>  <compound_id>  (1117) 
5294

>  <target_id>  (1117) 
1

>  <reference_id>  (1117) 
49

>  <inspiration_ids>  (1117) 
[49, 127]

>  <energy_score>  (1117) 
56.07579237268777

>  <distance_score>  (1117) 
14.607415937761033

>  <path>  (1117) 
/opt/xchem-fragalysis-2/maxwin/BulkDock/SCRATCH/511024/C5294-P49/C5294-P49.minimised.mol

>  <scratch_subdir>  (1117) 
/opt/xchem-fragalysis-2/maxwin/BulkDock/SCRATCH/511024/C5294-P49

>  <fragmenstein_runtime>  (1117) 
29.95119309425354

>  <fragmenstein_outcome>  (1117) 
too moved

>  <fragmenstein_mode>  (1117) 
expansion

>  <fragmenstein_error>  (1117) 


$$$$
C5294-P127
     RDKit          3D

 40 41  0  0  0  0  0  0  0  0999 V2000
  -19.6702  -12.8505   23.0260 C   0  0  0  0  0  0  0  0  0  0  0  0
  -18.2026  -12.9587   22.7137 N   0  0  0  0  0  0  0  0  0  0  0  0
  -18.5520  -11.7468   21.7523 C   0  0  0  0  0  0  0  0  0  0  0  0
  -17.3096  -11.2324   20.9373 C   0  0  0  0  0  0  0  0  0  0  0  0
  -17.4435   -9.9175   20.2681 N   0  0  0  0  0  0  0  0  0  0  0  0
  -16.9687   -9.4519   18.9548 C   0  0  0  0  0  0  0  0  0  0  0  0
  -16.4240  -10.0457   18.0650 O   0  0  0  0  0  0  0  0  0  0  0  0
  -17.2499   -7.9192   18.8129 C   0  0  0  0  0  0  0  0  0  0  0  0
  -16.6941   -7.1750   17.5960 C   0  0  0  0  0  0  0  0  0  0  0  0
  -16.7981   -5.8359   17.2477 C   0  0  0  0  0  0  0  0  0  0  0  0
  -16.0993   -5.6975   16.0342 C   0  0  0  0  0  0  0  0  0  0  0  0
  -15.5750   -6.8525   15.6220 N   0  0  0  0  0  0  0  0  0  0  0  0
  -15.9448   -7.7354   16.5863 N   0  0  0  0  0  0  0  0  0  0  0  0
  -17.8584  -14.3262   22.4165 C   0  0  0  0  0  0  0  0  0  0  0  0
  -17.8369  -14.9154   21.3667 O   0  0  0  0  0  0  0  0  0  0  0  0
  -17.4397  -15.1829   23.6304 C   0  0  0  0  0  0  0  0  0  0  0  0
  -17.4995  -14.8134   24.9762 C   0  0  0  0  0  0  0  0  0  0  0  0
  -17.0619  -15.7027   25.9831 C   0  0  0  0  0  0  0  0  0  0  0  0
  -16.4888  -16.9163   25.6352 C   0  0  0  0  0  0  0  0  0  0  0  0
  -16.0602  -17.8260   26.5803 N   0  0  0  0  0  0  0  0  0  0  0  0
  -16.4137  -17.3120   24.3586 N   0  0  0  0  0  0  0  0  0  0  0  0
  -16.9038  -16.4583   23.4053 C   0  0  0  0  0  0  0  0  0  0  0  0
  -19.8734  -13.6223   23.7824 H   0  0  0  0  0  0  0  0  0  0  0  0
  -20.3324  -13.1457   22.1984 H   0  0  0  0  0  0  0  0  0  0  0  0
  -19.9631  -11.9218   23.5347 H   0  0  0  0  0  0  0  0  0  0  0  0
  -18.8810  -10.8692   22.3290 H   0  0  0  0  0  0  0  0  0  0  0  0
  -19.2746  -12.0353   20.9735 H   0  0  0  0  0  0  0  0  0  0  0  0
  -17.0234  -11.9701   20.1821 H   0  0  0  0  0  0  0  0  0  0  0  0
  -16.4851  -11.0989   21.6428 H   0  0  0  0  0  0  0  0  0  0  0  0
  -17.7814   -9.1238   20.7994 H   0  0  0  0  0  0  0  0  0  0  0  0
  -16.8465   -7.4257   19.7062 H   0  0  0  0  0  0  0  0  0  0  0  0
  -18.3396   -7.7918   18.8153 H   0  0  0  0  0  0  0  0  0  0  0  0
  -17.3115   -5.0605   17.7988 H   0  0  0  0  0  0  0  0  0  0  0  0
  -15.9530   -4.8038   15.4416 H   0  0  0  0  0  0  0  0  0  0  0  0
  -15.6571   -8.7106   16.5086 H   0  0  0  0  0  0  0  0  0  0  0  0
  -17.8914  -13.8429   25.2645 H   0  0  0  0  0  0  0  0  0  0  0  0
  -17.1547  -15.4252   27.0280 H   0  0  0  0  0  0  0  0  0  0  0  0
  -15.5222  -17.4649   27.3697 H   0  0  0  0  0  0  0  0  0  0  0  0
  -15.5785  -18.5680   26.0896 H   0  0  0  0  0  0  0  0  0  0  0  0
  -16.8160  -16.8455   22.3912 H   0  0  0  0  0  0  0  0  0  0  0  0
  1  2  1  0
  2  3  1  0
  3  4  1  0
  4  5  1  0
  5  6  1  0
  6  7  2  0
  6  8  1  0
  8  9  1  0
  9 10  2  0
 10 11  1  0
 11 12  2  0
 12 13  1  0
  2 14  1  0
 14 15  2  0
 14 16  1  0
 16 17  2  0
 17 18  1  0
 18 19  2  0
 19 20  1  0
 19 21  1  0
 21 22  2  0
 13  9  1  0
 22 16  1  0
  1 23  1  0
  1 24  1  0
  1 25  1  0
  3 26  1  0
  3 27  1  0
  4 28  1  0
  4 29  1  0
  5 30  1  0
  8 31  1  0
  8 32  1  0
 10 33  1  0
 11 34  1  0
 13 35  1  0
 17 36  1  0
 18 37  1  0
 20 38  1  0
 20 39  1  0
 22 40  1  0
M  END
>  <Energy>  (1118) 
75.34682360230552

>  <compound_id>  (1118) 
5294

>  <target_id>  (1118) 
1

>  <reference_id>  (1118) 
127

>  <inspiration_ids>  (1118) 
[49, 127]

>  <energy_score>  (1118) 
49.017366467218665

>  <distance_score>  (1118) 
14.852584240400086

>  <path>  (1118) 
/opt/xchem-fragalysis-2/maxwin/BulkDock/SCRATCH/511024/C5294-P127/C5294-P127.minimised.mol

>  <scratch_subdir>  (1118) 
/opt/xchem-fragalysis-2/maxwin/BulkDock/SCRATCH/511024/C5294-P127

>  <fragmenstein_runtime>  (1118) 
37.028700828552246

>  <fragmenstein_outcome>  (1118) 
too moved

>  <fragmenstein_mode>  (1118) 
expansion

>  <fragmenstein_error>  (1118) 


$$$$
C5295-P49
     RDKit          3D

 45 46  0  0  0  0  0  0  0  0999 V2000
  -16.2972  -12.0407   26.9865 C   0  0  0  0  0  0  0  0  0  0  0  0
  -16.1447  -13.4537   26.4528 C   0  0  0  0  0  0  0  0  0  0  0  0
  -17.0224  -13.5938   25.3341 O   0  0  0  0  0  0  0  0  0  0  0  0
  -16.9446  -14.8311   24.7259 C   0  0  0  0  0  0  0  0  0  0  0  0
  -16.0927  -15.7630   25.2416 N   0  0  0  0  0  0  0  0  0  0  0  0
  -15.9791  -16.9425   24.5840 C   0  0  0  0  0  0  0  0  0  0  0  0
  -16.7230  -17.2648   23.4718 C   0  0  0  0  0  0  0  0  0  0  0  0
  -17.6006  -16.3009   22.9709 C   0  0  0  0  0  0  0  0  0  0  0  0
  -17.6984  -15.0385   23.5743 C   0  0  0  0  0  0  0  0  0  0  0  0
  -18.6663  -14.0311   23.0530 C   0  0  0  0  0  0  0  0  0  0  0  0
  -19.7832  -13.9614   23.5575 O   0  0  0  0  0  0  0  0  0  0  0  0
  -18.3190  -13.2610   21.9355 N   0  0  0  0  0  0  0  0  0  0  0  0
  -18.5441  -13.7929   20.6099 C   0  0  0  0  0  0  0  0  0  0  0  0
  -17.7297  -11.9191   22.0890 C   0  0  0  0  0  0  0  0  0  0  0  0
  -18.4824  -10.7469   21.4049 C   0  0  0  0  0  0  0  0  0  0  0  0
  -18.0647  -10.4164   20.0351 N   0  0  0  0  0  0  0  0  0  0  0  0
  -17.3096   -9.2826   19.5139 C   0  0  0  0  0  0  0  0  0  0  0  0
  -16.7704   -8.3738   20.0831 O   0  0  0  0  0  0  0  0  0  0  0  0
  -17.2272   -9.3598   17.9598 C   0  0  0  0  0  0  0  0  0  0  0  0
  -17.0364   -8.0380   17.2363 C   0  0  0  0  0  0  0  0  0  0  0  0
  -17.4309   -7.6401   15.9724 C   0  0  0  0  0  0  0  0  0  0  0  0
  -16.9842   -6.3157   15.8412 C   0  0  0  0  0  0  0  0  0  0  0  0
  -16.3015   -5.9008   16.9110 N   0  0  0  0  0  0  0  0  0  0  0  0
  -16.3767   -6.9502   17.7564 N   0  0  0  0  0  0  0  0  0  0  0  0
  -15.6325  -11.8709   27.8381 H   0  0  0  0  0  0  0  0  0  0  0  0
  -17.3298  -11.8572   27.3012 H   0  0  0  0  0  0  0  0  0  0  0  0
  -16.0661  -11.3074   26.2066 H   0  0  0  0  0  0  0  0  0  0  0  0
  -16.4128  -14.1690   27.2393 H   0  0  0  0  0  0  0  0  0  0  0  0
  -15.1026  -13.6049   26.1459 H   0  0  0  0  0  0  0  0  0  0  0  0
  -15.2849  -17.6606   25.0085 H   0  0  0  0  0  0  0  0  0  0  0  0
  -16.6446  -18.2477   23.0215 H   0  0  0  0  0  0  0  0  0  0  0  0
  -18.2237  -16.5432   22.1148 H   0  0  0  0  0  0  0  0  0  0  0  0
  -17.5945  -13.8294   20.0719 H   0  0  0  0  0  0  0  0  0  0  0  0
  -18.9716  -14.7976   20.6609 H   0  0  0  0  0  0  0  0  0  0  0  0
  -19.2458  -13.1467   20.0766 H   0  0  0  0  0  0  0  0  0  0  0  0
  -17.6770  -11.7144   23.1646 H   0  0  0  0  0  0  0  0  0  0  0  0
  -16.7150  -11.9533   21.7044 H   0  0  0  0  0  0  0  0  0  0  0  0
  -19.5607  -10.9334   21.3829 H   0  0  0  0  0  0  0  0  0  0  0  0
  -18.3057   -9.8397   21.9936 H   0  0  0  0  0  0  0  0  0  0  0  0
  -18.4478  -10.9438   19.2599 H   0  0  0  0  0  0  0  0  0  0  0  0
  -18.1446   -9.8197   17.5734 H   0  0  0  0  0  0  0  0  0  0  0  0
  -16.3877  -10.0207   17.7132 H   0  0  0  0  0  0  0  0  0  0  0  0
  -17.9866   -8.2204   15.2494 H   0  0  0  0  0  0  0  0  0  0  0  0
  -17.1361   -5.6501   15.0042 H   0  0  0  0  0  0  0  0  0  0  0  0
  -15.9852   -6.8638   18.6924 H   0  0  0  0  0  0  0  0  0  0  0  0
  1  2  1  0
  2  3  1  0
  3  4  1  0
  4  5  2  0
  5  6  1  0
  6  7  2  0
  7  8  1  0
  8  9  2  0
  9 10  1  0
 10 11  2  0
 10 12  1  0
 12 13  1  0
 12 14  1  0
 14 15  1  0
 15 16  1  0
 16 17  1  0
 17 18  2  0
 17 19  1  0
 19 20  1  0
 20 21  2  0
 21 22  1  0
 22 23  2  0
 23 24  1  0
  9  4  1  0
 24 20  1  0
  1 25  1  0
  1 26  1  0
  1 27  1  0
  2 28  1  0
  2 29  1  0
  6 30  1  0
  7 31  1  0
  8 32  1  0
 13 33  1  0
 13 34  1  0
 13 35  1  0
 14 36  1  0
 14 37  1  0
 15 38  1  0
 15 39  1  0
 16 40  1  0
 19 41  1  0
 19 42  1  0
 21 43  1  0
 22 44  1  0
 24 45  1  0
M  END
>  <Energy>  (1119) 
68.499017028751311

>  <compound_id>  (1119) 
5295

>  <target_id>  (1119) 
1

>  <reference_id>  (1119) 
49

>  <inspiration_ids>  (1119) 
[49, 127]

>  <energy_score>  (1119) 
-8.957851233018573

>  <distance_score>  (1119) 
15.452228185545657

>  <path>  (1119) 
/opt/xchem-fragalysis-2/maxwin/BulkDock/SCRATCH/511024/C5295-P49/C5295-P49.minimised.mol

>  <scratch_subdir>  (1119) 
/opt/xchem-fragalysis-2/maxwin/BulkDock/SCRATCH/511024/C5295-P49

>  <fragmenstein_runtime>  (1119) 
36.02109432220459

>  <fragmenstein_outcome>  (1119) 
too moved

>  <fragmenstein_mode>  (1119) 
expansion

>  <fragmenstein_error>  (1119) 


$$$$
C5295-P127
     RDKit          3D

 45 46  0  0  0  0  0  0  0  0999 V2000
  -10.1793  -17.2785   26.4812 C   0  0  0  0  0  0  0  0  0  0  0  0
  -10.5355  -16.6295   25.2550 C   0  0  0  0  0  0  0  0  0  0  0  0
  -11.3200  -17.1636   23.9209 O   0  0  0  0  0  0  0  0  0  0  0  0
  -12.5933  -16.4256   23.2867 C   0  0  0  0  0  0  0  0  0  0  0  0
  -13.7073  -17.0228   23.7733 N   0  0  0  0  0  0  0  0  0  0  0  0
  -14.9833  -17.3208   23.3766 C   0  0  0  0  0  0  0  0  0  0  0  0
  -15.3427  -17.0078   22.1559 C   0  0  0  0  0  0  0  0  0  0  0  0
  -14.2579  -16.4332   21.4908 C   0  0  0  0  0  0  0  0  0  0  0  0
  -12.7965  -16.0624   21.9381 C   0  0  0  0  0  0  0  0  0  0  0  0
  -12.2738  -15.1926   20.3256 C   0  0  0  0  0  0  0  0  0  0  0  0
  -12.9511  -15.6472   19.3770 O   0  0  0  0  0  0  0  0  0  0  0  0
  -11.1422  -13.6742   19.7181 N   0  0  0  0  0  0  0  0  0  0  0  0
   -9.4735  -14.3979   19.1521 C   0  0  0  0  0  0  0  0  0  0  0  0
   -9.8016  -13.5130   19.1723 C   0  0  0  0  0  0  0  0  0  0  0  0
   -9.0484  -12.0314   18.2152 C   0  0  0  0  0  0  0  0  0  0  0  0
   -9.9430  -11.1854   17.3956 N   0  0  0  0  0  0  0  0  0  0  0  0
  -10.0245   -9.7503   17.2543 C   0  0  0  0  0  0  0  0  0  0  0  0
   -9.4398   -8.8724   17.8267 O   0  0  0  0  0  0  0  0  0  0  0  0
  -10.9844   -9.4140   16.0731 C   0  0  0  0  0  0  0  0  0  0  0  0
  -11.9242   -8.2712   16.2924 C   0  0  0  0  0  0  0  0  0  0  0  0
  -13.1538   -7.9964   15.7264 C   0  0  0  0  0  0  0  0  0  0  0  0
  -13.6204   -6.8597   16.4044 C   0  0  0  0  0  0  0  0  0  0  0  0
  -12.7334   -6.4095   17.2920 N   0  0  0  0  0  0  0  0  0  0  0  0
  -11.7000   -7.2608   17.1848 N   0  0  0  0  0  0  0  0  0  0  0  0
   -9.8729  -18.2745   26.7622 H   0  0  0  0  0  0  0  0  0  0  0  0
  -11.1633  -17.1779   26.8994 H   0  0  0  0  0  0  0  0  0  0  0  0
   -9.3626  -16.6633   26.8658 H   0  0  0  0  0  0  0  0  0  0  0  0
  -11.2053  -15.8938   25.7360 H   0  0  0  0  0  0  0  0  0  0  0  0
   -9.6109  -16.1203   24.9561 H   0  0  0  0  0  0  0  0  0  0  0  0
  -15.6233  -17.8413   24.0801 H   0  0  0  0  0  0  0  0  0  0  0  0
  -16.2963  -17.2288   21.7067 H   0  0  0  0  0  0  0  0  0  0  0  0
  -14.5147  -16.3901   20.4435 H   0  0  0  0  0  0  0  0  0  0  0  0
   -9.1016  -15.1792   19.9032 H   0  0  0  0  0  0  0  0  0  0  0  0
   -8.5917  -14.1424   18.2535 H   0  0  0  0  0  0  0  0  0  0  0  0
   -9.9171  -15.3583   18.6324 H   0  0  0  0  0  0  0  0  0  0  0  0
  -10.5133  -12.9829   18.4517 H   0  0  0  0  0  0  0  0  0  0  0  0
   -9.5633  -13.1122   20.2152 H   0  0  0  0  0  0  0  0  0  0  0  0
   -8.3092  -11.4028   18.6995 H   0  0  0  0  0  0  0  0  0  0  0  0
   -8.3897  -12.4771   17.4569 H   0  0  0  0  0  0  0  0  0  0  0  0
  -10.6414  -11.6137   16.8086 H   0  0  0  0  0  0  0  0  0  0  0  0
  -11.5850  -10.2887   15.7986 H   0  0  0  0  0  0  0  0  0  0  0  0
  -10.3456   -9.1883   15.2101 H   0  0  0  0  0  0  0  0  0  0  0  0
  -13.6670   -8.5829   14.9766 H   0  0  0  0  0  0  0  0  0  0  0  0
  -14.5664   -6.3434   16.3010 H   0  0  0  0  0  0  0  0  0  0  0  0
  -10.8924   -7.1414   17.7934 H   0  0  0  0  0  0  0  0  0  0  0  0
  1  2  1  0
  2  3  1  0
  3  4  1  0
  4  5  2  0
  5  6  1  0
  6  7  2  0
  7  8  1  0
  8  9  2  0
  9 10  1  0
 10 11  2  0
 10 12  1  0
 12 13  1  0
 12 14  1  0
 14 15  1  0
 15 16  1  0
 16 17  1  0
 17 18  2  0
 17 19  1  0
 19 20  1  0
 20 21  2  0
 21 22  1  0
 22 23  2  0
 23 24  1  0
  9  4  1  0
 24 20  1  0
  1 25  1  0
  1 26  1  0
  1 27  1  0
  2 28  1  0
  2 29  1  0
  6 30  1  0
  7 31  1  0
  8 32  1  0
 13 33  1  0
 13 34  1  0
 13 35  1  0
 14 36  1  0
 14 37  1  0
 15 38  1  0
 15 39  1  0
 16 40  1  0
 19 41  1  0
 19 42  1  0
 21 43  1  0
 22 44  1  0
 24 45  1  0
M  END
>  <Energy>  (1120) 
1022.8699289347719

>  <compound_id>  (1120) 
5295

>  <target_id>  (1120) 
1

>  <reference_id>  (1120) 
127

>  <inspiration_ids>  (1120) 
[49, 127]

>  <energy_score>  (1120) 
945.4130606729905

>  <distance_score>  (1120) 
13.799831789383989

>  <path>  (1120) 
/opt/xchem-fragalysis-2/maxwin/BulkDock/SCRATCH/511024/C5295-P127/C5295-P127.minimised.mol

>  <scratch_subdir>  (1120) 
/opt/xchem-fragalysis-2/maxwin/BulkDock/SCRATCH/511024/C5295-P127

>  <fragmenstein_runtime>  (1120) 
25.370925903320312

>  <fragmenstein_outcome>  (1120) 
too moved

>  <fragmenstein_mode>  (1120) 
expansion

>  <fragmenstein_error>  (1120) 


$$$$
C5296-P49
     RDKit          3D

 45 46  0  0  0  0  0  0  0  0999 V2000
  -10.4637  -20.0308   18.4486 C   0  0  0  0  0  0  0  0  0  0  0  0
  -10.8054  -18.7020   17.7519 C   0  0  0  0  0  0  0  0  0  0  0  0
   -9.9428  -17.6454   18.1960 O   0  0  0  0  0  0  0  0  0  0  0  0
  -10.0949  -16.4076   17.5501 C   0  0  0  0  0  0  0  0  0  0  0  0
   -9.1455  -15.4411   17.8441 C   0  0  0  0  0  0  0  0  0  0  0  0
   -9.2518  -14.1406   17.2672 C   0  0  0  0  0  0  0  0  0  0  0  0
  -10.2705  -13.7753   16.3529 C   0  0  0  0  0  0  0  0  0  0  0  0
  -10.2994  -12.2741   15.7473 C   0  0  0  0  0  0  0  0  0  0  0  0
   -9.4224  -11.5818   16.2068 O   0  0  0  0  0  0  0  0  0  0  0  0
  -11.3133  -11.9702   14.7295 N   0  0  0  0  0  0  0  0  0  0  0  0
  -12.5327  -11.4490   15.3677 C   0  0  0  0  0  0  0  0  0  0  0  0
  -11.5269  -10.6104   13.7684 C   0  0  0  0  0  0  0  0  0  0  0  0
  -11.8434   -9.0448   14.1986 C   0  0  0  0  0  0  0  0  0  0  0  0
  -11.9329   -7.8966   13.1537 N   0  0  0  0  0  0  0  0  0  0  0  0
  -10.9677   -6.8386   12.7956 C   0  0  0  0  0  0  0  0  0  0  0  0
   -9.8449   -6.6585   13.1710 O   0  0  0  0  0  0  0  0  0  0  0  0
  -11.3965   -5.6109   11.4745 C   0  0  0  0  0  0  0  0  0  0  0  0
  -12.6279   -4.1748   11.3306 C   0  0  0  0  0  0  0  0  0  0  0  0
  -13.5288   -2.9796   12.2362 C   0  0  0  0  0  0  0  0  0  0  0  0
  -14.2119   -2.0613   11.2807 C   0  0  0  0  0  0  0  0  0  0  0  0
  -14.0686   -2.3800    9.9896 N   0  0  0  0  0  0  0  0  0  0  0  0
  -13.1309   -3.3736    9.8680 N   0  0  0  0  0  0  0  0  0  0  0  0
  -11.1442  -14.8442   16.1192 C   0  0  0  0  0  0  0  0  0  0  0  0
  -11.1020  -16.1454   16.6848 N   0  0  0  0  0  0  0  0  0  0  0  0
  -10.8957  -20.8655   17.8875 H   0  0  0  0  0  0  0  0  0  0  0  0
  -10.8737  -20.0842   19.4590 H   0  0  0  0  0  0  0  0  0  0  0  0
   -9.3801  -20.1672   18.5155 H   0  0  0  0  0  0  0  0  0  0  0  0
  -10.6669  -18.8362   16.6723 H   0  0  0  0  0  0  0  0  0  0  0  0
  -11.8527  -18.4436   17.9454 H   0  0  0  0  0  0  0  0  0  0  0  0
   -8.3487  -15.6624   18.5434 H   0  0  0  0  0  0  0  0  0  0  0  0
   -8.5150  -13.3921   17.5516 H   0  0  0  0  0  0  0  0  0  0  0  0
  -12.8649  -12.2505   16.0391 H   0  0  0  0  0  0  0  0  0  0  0  0
  -12.3264  -10.6123   16.0450 H   0  0  0  0  0  0  0  0  0  0  0  0
  -13.3989  -11.3137   14.7053 H   0  0  0  0  0  0  0  0  0  0  0  0
  -12.2378  -10.9139   12.9850 H   0  0  0  0  0  0  0  0  0  0  0  0
  -10.5500  -10.5607   13.2677 H   0  0  0  0  0  0  0  0  0  0  0  0
  -12.8104   -8.9932   14.7079 H   0  0  0  0  0  0  0  0  0  0  0  0
  -11.0627   -8.7403   14.9043 H   0  0  0  0  0  0  0  0  0  0  0  0
  -12.8214   -7.6980   12.7108 H   0  0  0  0  0  0  0  0  0  0  0  0
  -10.4055   -5.2027   11.2694 H   0  0  0  0  0  0  0  0  0  0  0  0
  -11.6015   -6.2298   10.6048 H   0  0  0  0  0  0  0  0  0  0  0  0
  -13.3396   -2.7660   13.2853 H   0  0  0  0  0  0  0  0  0  0  0  0
  -14.7849   -1.1817   11.5504 H   0  0  0  0  0  0  0  0  0  0  0  0
  -12.6382   -3.5271    8.9968 H   0  0  0  0  0  0  0  0  0  0  0  0
  -11.9798  -14.7075   15.4371 H   0  0  0  0  0  0  0  0  0  0  0  0
  1  2  1  0
  2  3  1  0
  3  4  1  0
  4  5  2  0
  5  6  1  0
  6  7  2  0
  7  8  1  0
  8  9  2  0
  8 10  1  0
 10 11  1  0
 10 12  1  0
 12 13  1  0
 13 14  1  0
 14 15  1  0
 15 16  2  0
 15 17  1  0
 17 18  1  0
 18 19  2  0
 19 20  1  0
 20 21  2  0
 21 22  1  0
  7 23  1  0
 23 24  2  0
 24  4  1  0
 22 18  1  0
  1 25  1  0
  1 26  1  0
  1 27  1  0
  2 28  1  0
  2 29  1  0
  5 30  1  0
  6 31  1  0
 11 32  1  0
 11 33  1  0
 11 34  1  0
 12 35  1  0
 12 36  1  0
 13 37  1  0
 13 38  1  0
 14 39  1  0
 17 40  1  0
 17 41  1  0
 19 42  1  0
 20 43  1  0
 22 44  1  0
 23 45  1  0
M  END
>  <Energy>  (1121) 
323.53872131279599

>  <compound_id>  (1121) 
5296

>  <target_id>  (1121) 
1

>  <reference_id>  (1121) 
49

>  <inspiration_ids>  (1121) 
[49, 127]

>  <energy_score>  (1121) 
251.5927425398338

>  <distance_score>  (1121) 
12.493951100701352

>  <path>  (1121) 
/opt/xchem-fragalysis-2/maxwin/BulkDock/SCRATCH/511024/C5296-P49/C5296-P49.minimised.mol

>  <scratch_subdir>  (1121) 
/opt/xchem-fragalysis-2/maxwin/BulkDock/SCRATCH/511024/C5296-P49

>  <fragmenstein_runtime>  (1121) 
35.5305233001709

>  <fragmenstein_outcome>  (1121) 
too moved

>  <fragmenstein_mode>  (1121) 
expansion

>  <fragmenstein_error>  (1121) 


$$$$
C5296-P127
     RDKit          3D

 45 46  0  0  0  0  0  0  0  0999 V2000
  -11.0990  -21.7012   27.4252 C   0  0  0  0  0  0  0  0  0  0  0  0
   -9.8682  -20.1568   27.0285 C   0  0  0  0  0  0  0  0  0  0  0  0
  -10.3608  -18.3485   26.8302 O   0  0  0  0  0  0  0  0  0  0  0  0
  -10.9446  -17.2756   25.5077 C   0  0  0  0  0  0  0  0  0  0  0  0
   -9.9659  -16.3573   25.5565 C   0  0  0  0  0  0  0  0  0  0  0  0
   -9.7776  -15.6053   24.1748 C   0  0  0  0  0  0  0  0  0  0  0  0
  -10.9979  -14.6631   22.5382 C   0  0  0  0  0  0  0  0  0  0  0  0
   -9.8795  -13.6954   20.6870 C   0  0  0  0  0  0  0  0  0  0  0  0
   -8.9583  -14.3590   20.4406 O   0  0  0  0  0  0  0  0  0  0  0  0
   -9.9380  -12.4356   19.3187 N   0  0  0  0  0  0  0  0  0  0  0  0
  -10.7931  -12.9181   18.1170 C   0  0  0  0  0  0  0  0  0  0  0  0
   -8.9647  -12.1050   18.1013 C   0  0  0  0  0  0  0  0  0  0  0  0
   -9.2454  -10.9411   17.1077 C   0  0  0  0  0  0  0  0  0  0  0  0
   -9.0594   -9.6047   17.6012 N   0  0  0  0  0  0  0  0  0  0  0  0
   -9.1305   -8.3347   16.9314 C   0  0  0  0  0  0  0  0  0  0  0  0
   -9.4404   -8.0597   15.8070 O   0  0  0  0  0  0  0  0  0  0  0  0
   -8.6993   -7.2271   17.9074 C   0  0  0  0  0  0  0  0  0  0  0  0
   -9.1285   -5.8548   17.4980 C   0  0  0  0  0  0  0  0  0  0  0  0
   -9.4247   -4.7414   18.2530 C   0  0  0  0  0  0  0  0  0  0  0  0
   -9.6926   -3.7382   17.3185 C   0  0  0  0  0  0  0  0  0  0  0  0
   -9.5761   -4.1743   16.0644 N   0  0  0  0  0  0  0  0  0  0  0  0
   -9.2619   -5.4651   16.1923 N   0  0  0  0  0  0  0  0  0  0  0  0
  -12.1859  -15.9618   22.9435 C   0  0  0  0  0  0  0  0  0  0  0  0
  -12.0423  -17.1629   24.2510 N   0  0  0  0  0  0  0  0  0  0  0  0
  -11.5910  -21.5862   28.4107 H   0  0  0  0  0  0  0  0  0  0  0  0
  -10.6355  -22.6892   27.4109 H   0  0  0  0  0  0  0  0  0  0  0  0
  -11.8922  -21.8065   26.6599 H   0  0  0  0  0  0  0  0  0  0  0  0
   -8.8377  -20.3131   26.8124 H   0  0  0  0  0  0  0  0  0  0  0  0
  -10.2420  -20.4864   26.1417 H   0  0  0  0  0  0  0  0  0  0  0  0
   -9.2500  -16.2180   26.3517 H   0  0  0  0  0  0  0  0  0  0  0  0
   -8.7582  -15.1423   24.6142 H   0  0  0  0  0  0  0  0  0  0  0  0
  -10.4053  -13.0171   17.0762 H   0  0  0  0  0  0  0  0  0  0  0  0
  -11.5636  -12.1813   17.8576 H   0  0  0  0  0  0  0  0  0  0  0  0
  -10.8173  -14.0146   18.2090 H   0  0  0  0  0  0  0  0  0  0  0  0
   -8.0006  -11.8414   18.5582 H   0  0  0  0  0  0  0  0  0  0  0  0
   -8.6492  -13.0347   17.5951 H   0  0  0  0  0  0  0  0  0  0  0  0
  -10.2379  -10.9611   16.6494 H   0  0  0  0  0  0  0  0  0  0  0  0
   -8.5384  -11.0419   16.2746 H   0  0  0  0  0  0  0  0  0  0  0  0
   -8.6774   -9.4676   18.5300 H   0  0  0  0  0  0  0  0  0  0  0  0
   -9.1115   -7.4412   18.8974 H   0  0  0  0  0  0  0  0  0  0  0  0
   -7.6059   -7.2528   17.9762 H   0  0  0  0  0  0  0  0  0  0  0  0
   -9.4212   -4.6589   19.3297 H   0  0  0  0  0  0  0  0  0  0  0  0
   -9.9679   -2.7097   17.5097 H   0  0  0  0  0  0  0  0  0  0  0  0
   -9.1673   -6.0467   15.3616 H   0  0  0  0  0  0  0  0  0  0  0  0
  -13.0070  -16.2657   22.2966 H   0  0  0  0  0  0  0  0  0  0  0  0
  1  2  1  0
  2  3  1  0
  3  4  1  0
  4  5  2  0
  5  6  1  0
  6  7  2  0
  7  8  1  0
  8  9  2  0
  8 10  1  0
 10 11  1  0
 10 12  1  0
 12 13  1  0
 13 14  1  0
 14 15  1  0
 15 16  2  0
 15 17  1  0
 17 18  1  0
 18 19  2  0
 19 20  1  0
 20 21  2  0
 21 22  1  0
  7 23  1  0
 23 24  2  0
 24  4  1  0
 22 18  1  0
  1 25  1  0
  1 26  1  0
  1 27  1  0
  2 28  1  0
  2 29  1  0
  5 30  1  0
  6 31  1  0
 11 32  1  0
 11 33  1  0
 11 34  1  0
 12 35  1  0
 12 36  1  0
 13 37  1  0
 13 38  1  0
 14 39  1  0
 17 40  1  0
 17 41  1  0
 19 42  1  0
 20 43  1  0
 22 44  1  0
 23 45  1  0
M  END
>  <Energy>  (1122) 
1378.5391947719475

>  <compound_id>  (1122) 
5296

>  <target_id>  (1122) 
1

>  <reference_id>  (1122) 
127

>  <inspiration_ids>  (1122) 
[49, 127]

>  <energy_score>  (1122) 
1306.5932159990125

>  <distance_score>  (1122) 
11.595646915343812

>  <path>  (1122) 
/opt/xchem-fragalysis-2/maxwin/BulkDock/SCRATCH/511024/C5296-P127/C5296-P127.minimised.mol

>  <scratch_subdir>  (1122) 
/opt/xchem-fragalysis-2/maxwin/BulkDock/SCRATCH/511024/C5296-P127

>  <fragmenstein_runtime>  (1122) 
52.88473463058472

>  <fragmenstein_outcome>  (1122) 
too moved

>  <fragmenstein_mode>  (1122) 
expansion

>  <fragmenstein_error>  (1122) 


$$$$
C5297-P49
     RDKit          3D

 39 40  0  0  0  0  0  0  0  0999 V2000
  -16.3838  -10.1375   23.1717 C   0  0  0  0  0  0  0  0  0  0  0  0
  -15.6539  -10.7860   24.2872 N   0  0  0  0  0  0  0  0  0  0  0  0
  -14.9452   -9.3963   24.3294 C   0  0  0  0  0  0  0  0  0  0  0  0
  -13.9722   -8.9239   23.1779 C   0  0  0  0  0  0  0  0  0  0  0  0
  -14.5001   -7.9349   22.2196 N   0  0  0  0  0  0  0  0  0  0  0  0
  -13.9328   -7.4067   20.9779 C   0  0  0  0  0  0  0  0  0  0  0  0
  -12.9327   -7.7043   20.3880 O   0  0  0  0  0  0  0  0  0  0  0  0
  -14.8881   -6.3142   20.4008 C   0  0  0  0  0  0  0  0  0  0  0  0
  -14.3499   -5.4859   19.2453 C   0  0  0  0  0  0  0  0  0  0  0  0
  -13.1723   -4.7866   19.0583 C   0  0  0  0  0  0  0  0  0  0  0  0
  -13.3163   -4.1210   17.8271 C   0  0  0  0  0  0  0  0  0  0  0  0
  -14.5023   -4.3582   17.2640 N   0  0  0  0  0  0  0  0  0  0  0  0
  -15.0911   -5.2237   18.1159 N   0  0  0  0  0  0  0  0  0  0  0  0
  -16.0934  -11.1604   25.6010 C   0  0  0  0  0  0  0  0  0  0  0  0
  -17.1424  -10.9602   26.1613 O   0  0  0  0  0  0  0  0  0  0  0  0
  -15.1524  -12.0452   26.4150 C   0  0  0  0  0  0  0  0  0  0  0  0
  -15.6741  -12.7067   27.5530 C   0  0  0  0  0  0  0  0  0  0  0  0
  -14.8864  -13.5402   28.3535 C   0  0  0  0  0  0  0  0  0  0  0  0
  -13.5684  -13.7111   28.0008 C   0  0  0  0  0  0  0  0  0  0  0  0
  -13.0286  -13.1469   26.8998 N   0  0  0  0  0  0  0  0  0  0  0  0
  -13.8269  -12.3389   26.1537 C   0  0  0  0  0  0  0  0  0  0  0  0
  -13.1156  -11.7601   25.1558 O   0  0  0  0  0  0  0  0  0  0  0  0
  -17.1829  -10.8641   22.9568 H   0  0  0  0  0  0  0  0  0  0  0  0
  -15.8275  -10.1168   22.2291 H   0  0  0  0  0  0  0  0  0  0  0  0
  -16.9703   -9.2375   23.4088 H   0  0  0  0  0  0  0  0  0  0  0  0
  -14.2740   -9.5046   25.1952 H   0  0  0  0  0  0  0  0  0  0  0  0
  -15.6141   -8.5915   24.6828 H   0  0  0  0  0  0  0  0  0  0  0  0
  -13.1252   -8.4133   23.6488 H   0  0  0  0  0  0  0  0  0  0  0  0
  -13.5635   -9.7713   22.6167 H   0  0  0  0  0  0  0  0  0  0  0  0
  -15.3171   -7.3893   22.4695 H   0  0  0  0  0  0  0  0  0  0  0  0
  -15.8076   -6.8242   20.0883 H   0  0  0  0  0  0  0  0  0  0  0  0
  -15.1427   -5.6195   21.2108 H   0  0  0  0  0  0  0  0  0  0  0  0
  -12.3273   -4.7531   19.7325 H   0  0  0  0  0  0  0  0  0  0  0  0
  -12.6105   -3.4681   17.3296 H   0  0  0  0  0  0  0  0  0  0  0  0
  -16.0155   -5.5730   17.8803 H   0  0  0  0  0  0  0  0  0  0  0  0
  -16.7194  -12.5663   27.8260 H   0  0  0  0  0  0  0  0  0  0  0  0
  -15.2987  -14.0318   29.2241 H   0  0  0  0  0  0  0  0  0  0  0  0
  -12.8969  -14.3222   28.5986 H   0  0  0  0  0  0  0  0  0  0  0  0
  -12.2521  -12.1841   25.3230 H   0  0  0  0  0  0  0  0  0  0  0  0
  1  2  1  0
  2  3  1  0
  3  4  1  0
  4  5  1  0
  5  6  1  0
  6  7  2  0
  6  8  1  0
  8  9  1  0
  9 10  2  0
 10 11  1  0
 11 12  2  0
 12 13  1  0
  2 14  1  0
 14 15  2  0
 14 16  1  0
 16 17  2  0
 17 18  1  0
 18 19  2  0
 19 20  1  0
 20 21  2  0
 21 22  1  0
 13  9  1  0
 21 16  1  0
  1 23  1  0
  1 24  1  0
  1 25  1  0
  3 26  1  0
  3 27  1  0
  4 28  1  0
  4 29  1  0
  5 30  1  0
  8 31  1  0
  8 32  1  0
 10 33  1  0
 11 34  1  0
 13 35  1  0
 17 36  1  0
 18 37  1  0
 19 38  1  0
 22 39  1  0
M  END
>  <Energy>  (1123) 
112.94584008669237

>  <compound_id>  (1123) 
5297

>  <target_id>  (1123) 
1

>  <reference_id>  (1123) 
49

>  <inspiration_ids>  (1123) 
[49, 127]

>  <energy_score>  (1123) 
27.01439489030497

>  <distance_score>  (1123) 
14.750137920506189

>  <path>  (1123) 
/opt/xchem-fragalysis-2/maxwin/BulkDock/SCRATCH/511024/C5297-P49/C5297-P49.minimised.mol

>  <scratch_subdir>  (1123) 
/opt/xchem-fragalysis-2/maxwin/BulkDock/SCRATCH/511024/C5297-P49

>  <fragmenstein_runtime>  (1123) 
32.22135829925537

>  <fragmenstein_outcome>  (1123) 
too moved

>  <fragmenstein_mode>  (1123) 
expansion

>  <fragmenstein_error>  (1123) 


$$$$
C5297-P127
     RDKit          3D

 39 40  0  0  0  0  0  0  0  0999 V2000
   -9.7311  -12.1704   19.1256 C   0  0  0  0  0  0  0  0  0  0  0  0
   -9.5351  -13.5272   20.5770 N   0  0  0  0  0  0  0  0  0  0  0  0
   -9.3297  -13.9554   19.1006 C   0  0  0  0  0  0  0  0  0  0  0  0
   -8.2348  -12.9545   17.7295 C   0  0  0  0  0  0  0  0  0  0  0  0
   -8.7117  -11.6988   16.8891 N   0  0  0  0  0  0  0  0  0  0  0  0
   -7.9708  -10.5654   16.3669 C   0  0  0  0  0  0  0  0  0  0  0  0
   -6.8232  -10.2507   16.5073 O   0  0  0  0  0  0  0  0  0  0  0  0
   -8.8925   -9.7499   15.4020 C   0  0  0  0  0  0  0  0  0  0  0  0
   -9.2512   -8.3389   15.7734 C   0  0  0  0  0  0  0  0  0  0  0  0
   -8.5032   -7.1853   15.9044 C   0  0  0  0  0  0  0  0  0  0  0  0
   -9.4400   -6.1508   16.0916 C   0  0  0  0  0  0  0  0  0  0  0  0
  -10.6945   -6.6045   16.0882 N   0  0  0  0  0  0  0  0  0  0  0  0
  -10.5564   -7.9268   15.9034 N   0  0  0  0  0  0  0  0  0  0  0  0
  -10.8294  -14.2140   22.0102 C   0  0  0  0  0  0  0  0  0  0  0  0
  -11.7541  -13.6358   21.9719 O   0  0  0  0  0  0  0  0  0  0  0  0
  -10.2832  -16.0810   23.2699 C   0  0  0  0  0  0  0  0  0  0  0  0
   -9.2779  -15.7482   24.8338 C   0  0  0  0  0  0  0  0  0  0  0  0
   -9.1935  -15.8271   26.3050 C   0  0  0  0  0  0  0  0  0  0  0  0
  -10.1728  -16.4928   26.8675 C   0  0  0  0  0  0  0  0  0  0  0  0
  -10.8875  -17.1771   26.0024 N   0  0  0  0  0  0  0  0  0  0  0  0
  -10.9975  -17.1458   24.4325 C   0  0  0  0  0  0  0  0  0  0  0  0
  -10.9765  -18.5282   24.2981 O   0  0  0  0  0  0  0  0  0  0  0  0
  -10.1085  -11.1334   18.8976 H   0  0  0  0  0  0  0  0  0  0  0  0
  -10.4078  -12.5736   18.3382 H   0  0  0  0  0  0  0  0  0  0  0  0
   -8.7749  -11.6835   18.8808 H   0  0  0  0  0  0  0  0  0  0  0  0
   -9.4626  -15.0353   18.9069 H   0  0  0  0  0  0  0  0  0  0  0  0
   -8.3443  -13.7232   19.4925 H   0  0  0  0  0  0  0  0  0  0  0  0
   -7.8679  -13.5711   16.9107 H   0  0  0  0  0  0  0  0  0  0  0  0
   -7.3299  -12.5573   18.2424 H   0  0  0  0  0  0  0  0  0  0  0  0
   -9.6853  -11.6016   16.6349 H   0  0  0  0  0  0  0  0  0  0  0  0
   -9.8102  -10.3103   15.1857 H   0  0  0  0  0  0  0  0  0  0  0  0
   -8.3568   -9.7198   14.4426 H   0  0  0  0  0  0  0  0  0  0  0  0
   -7.4263   -7.1029   15.8415 H   0  0  0  0  0  0  0  0  0  0  0  0
   -9.2574   -5.0913   16.2231 H   0  0  0  0  0  0  0  0  0  0  0  0
  -11.4002   -8.4887   15.8519 H   0  0  0  0  0  0  0  0  0  0  0  0
   -8.3297  -15.2032   24.6553 H   0  0  0  0  0  0  0  0  0  0  0  0
   -8.4098  -15.3273   26.8566 H   0  0  0  0  0  0  0  0  0  0  0  0
  -10.3404  -16.6162   27.9215 H   0  0  0  0  0  0  0  0  0  0  0  0
  -11.1081  -18.7587   23.3828 H   0  0  0  0  0  0  0  0  0  0  0  0
  1  2  1  0
  2  3  1  0
  3  4  1  0
  4  5  1  0
  5  6  1  0
  6  7  2  0
  6  8  1  0
  8  9  1  0
  9 10  2  0
 10 11  1  0
 11 12  2  0
 12 13  1  0
  2 14  1  0
 14 15  2  0
 14 16  1  0
 16 17  2  0
 17 18  1  0
 18 19  2  0
 19 20  1  0
 20 21  2  0
 21 22  1  0
 13  9  1  0
 21 16  1  0
  1 23  1  0
  1 24  1  0
  1 25  1  0
  3 26  1  0
  3 27  1  0
  4 28  1  0
  4 29  1  0
  5 30  1  0
  8 31  1  0
  8 32  1  0
 10 33  1  0
 11 34  1  0
 13 35  1  0
 17 36  1  0
 18 37  1  0
 19 38  1  0
 22 39  1  0
M  END
>  <Energy>  (1124) 
1144.6449007033953

>  <compound_id>  (1124) 
5297

>  <target_id>  (1124) 
1

>  <reference_id>  (1124) 
127

>  <inspiration_ids>  (1124) 
[49, 127]

>  <energy_score>  (1124) 
1058.7134555070024

>  <distance_score>  (1124) 
13.173232456304193

>  <path>  (1124) 
/opt/xchem-fragalysis-2/maxwin/BulkDock/SCRATCH/511024/C5297-P127/C5297-P127.minimised.mol

>  <scratch_subdir>  (1124) 
/opt/xchem-fragalysis-2/maxwin/BulkDock/SCRATCH/511024/C5297-P127

>  <fragmenstein_runtime>  (1124) 
21.822073698043823

>  <fragmenstein_outcome>  (1124) 
too moved

>  <fragmenstein_mode>  (1124) 
expansion

>  <fragmenstein_error>  (1124) 


$$$$
C5299-P49
     RDKit          3D

 45 47  0  0  0  0  0  0  0  0999 V2000
  -11.4714  -10.5812   14.1605 C   0  0  0  0  0  0  0  0  0  0  0  0
  -12.3657  -10.9563   13.0203 N   0  0  0  0  0  0  0  0  0  0  0  0
  -13.7134  -11.1416   13.4927 C   0  0  0  0  0  0  0  0  0  0  0  0
  -14.6243  -10.3592   13.5815 O   0  0  0  0  0  0  0  0  0  0  0  0
  -14.0460  -12.5357   14.0343 C   0  0  0  0  0  0  0  0  0  0  0  0
  -15.2023  -12.7302   14.8220 C   0  0  0  0  0  0  0  0  0  0  0  0
  -15.6511  -14.0151   15.1606 C   0  0  0  0  0  0  0  0  0  0  0  0
  -14.9021  -15.0953   14.7343 C   0  0  0  0  0  0  0  0  0  0  0  0
  -13.7182  -14.9567   14.0944 N   0  0  0  0  0  0  0  0  0  0  0  0
  -13.3264  -13.6875   13.7512 C   0  0  0  0  0  0  0  0  0  0  0  0
  -11.6527   -9.6704   12.3370 C   0  0  0  0  0  0  0  0  0  0  0  0
  -12.3593   -9.4208   10.9203 C   0  0  0  0  0  0  0  0  0  0  0  0
  -12.1125   -8.0824   10.3521 N   0  0  0  0  0  0  0  0  0  0  0  0
  -12.0749   -7.6187    8.9529 C   0  0  0  0  0  0  0  0  0  0  0  0
  -12.1571   -8.2343    7.9254 O   0  0  0  0  0  0  0  0  0  0  0  0
  -11.7630   -6.0064    8.8722 C   0  0  0  0  0  0  0  0  0  0  0  0
  -12.3424   -4.1174    8.5821 C   0  0  0  0  0  0  0  0  0  0  0  0
  -13.2444   -3.1599    9.1270 C   0  0  0  0  0  0  0  0  0  0  0  0
  -13.4916   -2.1326    8.1883 C   0  0  0  0  0  0  0  0  0  0  0  0
  -12.7543   -2.2803    7.1038 N   0  0  0  0  0  0  0  0  0  0  0  0
  -12.1192   -3.4451    7.3125 N   0  0  0  0  0  0  0  0  0  0  0  0
  -10.1566   -9.7654   12.0036 C   0  0  0  0  0  0  0  0  0  0  0  0
   -9.3732   -8.5350   11.5568 C   0  0  0  0  0  0  0  0  0  0  0  0
   -9.0739   -9.1605   12.8805 C   0  0  0  0  0  0  0  0  0  0  0  0
  -11.7844  -11.2238   14.9994 H   0  0  0  0  0  0  0  0  0  0  0  0
  -11.6076   -9.5813   14.5966 H   0  0  0  0  0  0  0  0  0  0  0  0
  -10.4393  -10.9138   14.0193 H   0  0  0  0  0  0  0  0  0  0  0  0
  -15.8069  -11.8699   15.1074 H   0  0  0  0  0  0  0  0  0  0  0  0
  -16.5752  -14.1555   15.7098 H   0  0  0  0  0  0  0  0  0  0  0  0
  -15.2119  -16.1170   14.9335 H   0  0  0  0  0  0  0  0  0  0  0  0
  -12.4080  -13.6465   13.1715 H   0  0  0  0  0  0  0  0  0  0  0  0
  -11.9112   -8.7548   12.8958 H   0  0  0  0  0  0  0  0  0  0  0  0
  -12.0531  -10.1711   10.1831 H   0  0  0  0  0  0  0  0  0  0  0  0
  -13.4457   -9.4962   11.0365 H   0  0  0  0  0  0  0  0  0  0  0  0
  -11.9313   -7.3002   10.9652 H   0  0  0  0  0  0  0  0  0  0  0  0
  -11.1940   -6.1449    7.9460 H   0  0  0  0  0  0  0  0  0  0  0  0
  -11.2490   -6.0070    9.8630 H   0  0  0  0  0  0  0  0  0  0  0  0
  -13.7849   -3.1801   10.0527 H   0  0  0  0  0  0  0  0  0  0  0  0
  -14.1506   -1.2789    8.2773 H   0  0  0  0  0  0  0  0  0  0  0  0
  -11.7092   -3.9145    6.5145 H   0  0  0  0  0  0  0  0  0  0  0  0
   -9.9260  -10.6975   11.4940 H   0  0  0  0  0  0  0  0  0  0  0  0
   -9.8120   -7.5466   11.5889 H   0  0  0  0  0  0  0  0  0  0  0  0
   -8.6544   -8.6672   10.7538 H   0  0  0  0  0  0  0  0  0  0  0  0
   -8.1432   -9.7096   12.9818 H   0  0  0  0  0  0  0  0  0  0  0  0
   -9.3521   -8.6029   13.7675 H   0  0  0  0  0  0  0  0  0  0  0  0
  1  2  1  0
  2  3  1  0
  3  4  2  0
  3  5  1  0
  5  6  2  0
  6  7  1  0
  7  8  2  0
  8  9  1  0
  9 10  2  0
  2 11  1  0
 11 12  1  0
 12 13  1  0
 13 14  1  0
 14 15  2  0
 14 16  1  0
 16 17  1  0
 17 18  2  0
 18 19  1  0
 19 20  2  0
 20 21  1  0
 11 22  1  0
 22 23  1  0
 23 24  1  0
 10  5  1  0
 21 17  1  0
 24 22  1  0
  1 25  1  0
  1 26  1  0
  1 27  1  0
  6 28  1  0
  7 29  1  0
  8 30  1  0
 10 31  1  0
 11 32  1  0
 12 33  1  0
 12 34  1  0
 13 35  1  0
 16 36  1  0
 16 37  1  0
 18 38  1  0
 19 39  1  0
 21 40  1  0
 22 41  1  0
 23 42  1  0
 23 43  1  0
 24 44  1  0
 24 45  1  0
M  END
>  <Energy>  (1125) 
287.55186915978999

>  <compound_id>  (1125) 
5299

>  <target_id>  (1125) 
1

>  <reference_id>  (1125) 
49

>  <inspiration_ids>  (1125) 
[49, 127]

>  <energy_score>  (1125) 
181.31704686836076

>  <distance_score>  (1125) 
14.127382540705543

>  <path>  (1125) 
/opt/xchem-fragalysis-2/maxwin/BulkDock/SCRATCH/511024/C5299-P49/C5299-P49.minimised.mol

>  <scratch_subdir>  (1125) 
/opt/xchem-fragalysis-2/maxwin/BulkDock/SCRATCH/511024/C5299-P49

>  <fragmenstein_runtime>  (1125) 
42.36663746833801

>  <fragmenstein_outcome>  (1125) 
too moved

>  <fragmenstein_mode>  (1125) 
expansion

>  <fragmenstein_error>  (1125) 


$$$$
C5299-P127
     RDKit          3D

 45 47  0  0  0  0  0  0  0  0999 V2000
   -8.3027   -9.8211   12.7572 C   0  0  0  0  0  0  0  0  0  0  0  0
   -9.6732  -10.2352   13.0946 N   0  0  0  0  0  0  0  0  0  0  0  0
   -9.9575   -9.9310   14.4823 C   0  0  0  0  0  0  0  0  0  0  0  0
  -10.4348   -8.9435   14.9846 O   0  0  0  0  0  0  0  0  0  0  0  0
   -9.7131  -11.0861   15.4897 C   0  0  0  0  0  0  0  0  0  0  0  0
   -9.1430  -12.3343   15.2120 C   0  0  0  0  0  0  0  0  0  0  0  0
   -8.9661  -13.3027   16.2256 C   0  0  0  0  0  0  0  0  0  0  0  0
   -9.3767  -13.0110   17.5124 C   0  0  0  0  0  0  0  0  0  0  0  0
   -9.9409  -11.8394   17.8323 N   0  0  0  0  0  0  0  0  0  0  0  0
  -10.1066  -10.9248   16.8274 C   0  0  0  0  0  0  0  0  0  0  0  0
  -10.0093   -9.4085   11.7392 C   0  0  0  0  0  0  0  0  0  0  0  0
   -9.3202   -7.8275   10.9041 C   0  0  0  0  0  0  0  0  0  0  0  0
  -10.0860   -5.6128   11.0430 N   0  0  0  0  0  0  0  0  0  0  0  0
   -9.7656   -4.2339   10.0300 C   0  0  0  0  0  0  0  0  0  0  0  0
   -9.1283   -4.1790    8.9624 O   0  0  0  0  0  0  0  0  0  0  0  0
  -10.2842   -2.5219   10.6090 C   0  0  0  0  0  0  0  0  0  0  0  0
  -11.2301   -1.2568   10.2897 C   0  0  0  0  0  0  0  0  0  0  0  0
  -11.9098   -0.3839   11.1248 C   0  0  0  0  0  0  0  0  0  0  0  0
  -12.5254    0.5485   10.2723 C   0  0  0  0  0  0  0  0  0  0  0  0
  -12.2595    0.3150    8.9882 N   0  0  0  0  0  0  0  0  0  0  0  0
  -11.4531   -0.7634    9.0198 N   0  0  0  0  0  0  0  0  0  0  0  0
  -10.3410  -10.3662   10.5685 C   0  0  0  0  0  0  0  0  0  0  0  0
  -10.0416  -11.8393   10.6102 C   0  0  0  0  0  0  0  0  0  0  0  0
   -9.3060  -10.9656    9.6389 C   0  0  0  0  0  0  0  0  0  0  0  0
   -7.9133  -10.1099   11.7781 H   0  0  0  0  0  0  0  0  0  0  0  0
   -7.6614  -10.4093   13.4323 H   0  0  0  0  0  0  0  0  0  0  0  0
   -8.0781   -8.8006   13.0812 H   0  0  0  0  0  0  0  0  0  0  0  0
   -8.8359  -12.5724   14.1969 H   0  0  0  0  0  0  0  0  0  0  0  0
   -8.5261  -14.2660   15.9911 H   0  0  0  0  0  0  0  0  0  0  0  0
   -9.2860  -13.7190   18.3279 H   0  0  0  0  0  0  0  0  0  0  0  0
  -10.5972  -10.0085   17.1502 H   0  0  0  0  0  0  0  0  0  0  0  0
  -11.0400   -9.1850   12.0496 H   0  0  0  0  0  0  0  0  0  0  0  0
   -8.1902   -8.0864   11.1595 H   0  0  0  0  0  0  0  0  0  0  0  0
   -9.1684   -8.3682    9.8494 H   0  0  0  0  0  0  0  0  0  0  0  0
  -10.5666   -5.3058   11.8927 H   0  0  0  0  0  0  0  0  0  0  0  0
   -9.5449   -2.0046    9.9795 H   0  0  0  0  0  0  0  0  0  0  0  0
  -10.1935   -2.4482   11.6796 H   0  0  0  0  0  0  0  0  0  0  0  0
  -11.9671   -0.4188   12.2027 H   0  0  0  0  0  0  0  0  0  0  0  0
  -13.1543    1.3890   10.5341 H   0  0  0  0  0  0  0  0  0  0  0  0
  -11.1424   -1.1839    8.1487 H   0  0  0  0  0  0  0  0  0  0  0  0
  -11.2804  -10.0781   10.1011 H   0  0  0  0  0  0  0  0  0  0  0  0
  -10.7949  -12.5156   10.2196 H   0  0  0  0  0  0  0  0  0  0  0  0
   -9.4835  -12.2548   11.4401 H   0  0  0  0  0  0  0  0  0  0  0  0
   -9.5654  -11.0489    8.5876 H   0  0  0  0  0  0  0  0  0  0  0  0
   -8.2510  -10.7939    9.8026 H   0  0  0  0  0  0  0  0  0  0  0  0
  1  2  1  0
  2  3  1  0
  3  4  2  0
  3  5  1  0
  5  6  2  0
  6  7  1  0
  7  8  2  0
  8  9  1  0
  9 10  2  0
  2 11  1  0
 11 12  1  0
 12 13  1  0
 13 14  1  0
 14 15  2  0
 14 16  1  0
 16 17  1  0
 17 18  2  0
 18 19  1  0
 19 20  2  0
 20 21  1  0
 11 22  1  0
 22 23  1  0
 23 24  1  0
 10  5  1  0
 21 17  1  0
 24 22  1  0
  1 25  1  0
  1 26  1  0
  1 27  1  0
  6 28  1  0
  7 29  1  0
  8 30  1  0
 10 31  1  0
 11 32  1  0
 12 33  1  0
 12 34  1  0
 13 35  1  0
 16 36  1  0
 16 37  1  0
 18 38  1  0
 19 39  1  0
 21 40  1  0
 22 41  1  0
 23 42  1  0
 23 43  1  0
 24 44  1  0
 24 45  1  0
M  END
>  <Energy>  (1126) 
680.60168650202866

>  <compound_id>  (1126) 
5299

>  <target_id>  (1126) 
1

>  <reference_id>  (1126) 
127

>  <inspiration_ids>  (1126) 
[49, 127]

>  <energy_score>  (1126) 
574.3668642105949

>  <distance_score>  (1126) 
12.896925549960985

>  <path>  (1126) 
/opt/xchem-fragalysis-2/maxwin/BulkDock/SCRATCH/511024/C5299-P127/C5299-P127.minimised.mol

>  <scratch_subdir>  (1126) 
/opt/xchem-fragalysis-2/maxwin/BulkDock/SCRATCH/511024/C5299-P127

>  <fragmenstein_runtime>  (1126) 
31.161606788635254

>  <fragmenstein_outcome>  (1126) 
too moved

>  <fragmenstein_mode>  (1126) 
expansion

>  <fragmenstein_error>  (1126) 


$$$$
C25880-P49
     RDKit          3D

 40 41  0  0  0  0  0  0  0  0999 V2000
  -13.9179  -12.6016   25.4772 C   0  0  0  0  0  0  0  0  0  0  0  0
  -13.9780  -11.8757   24.2226 O   0  0  0  0  0  0  0  0  0  0  0  0
  -12.7643  -11.5578   23.4795 C   0  0  0  0  0  0  0  0  0  0  0  0
  -11.8651  -11.2591   24.3549 C   0  0  0  0  0  0  0  0  0  0  0  0
  -10.9528  -10.7204   23.5819 C   0  0  0  0  0  0  0  0  0  0  0  0
  -10.9866  -10.2610   22.1395 C   0  0  0  0  0  0  0  0  0  0  0  0
  -12.1302   -9.8269   21.5468 C   0  0  0  0  0  0  0  0  0  0  0  0
  -12.1860   -8.7053   19.7477 C   0  0  0  0  0  0  0  0  0  0  0  0
  -11.4291   -8.1566   17.8302 N   0  0  0  0  0  0  0  0  0  0  0  0
   -9.9481   -8.2966   17.5981 C   0  0  0  0  0  0  0  0  0  0  0  0
  -11.1457   -6.6832   16.5145 C   0  0  0  0  0  0  0  0  0  0  0  0
  -10.9942   -6.3756   14.5034 C   0  0  0  0  0  0  0  0  0  0  0  0
  -11.3716   -5.0487   13.1718 N   0  0  0  0  0  0  0  0  0  0  0  0
  -11.4943   -5.1647   11.3058 C   0  0  0  0  0  0  0  0  0  0  0  0
  -11.2270   -6.1894   10.7227 O   0  0  0  0  0  0  0  0  0  0  0  0
  -12.2060   -3.8136   10.0076 C   0  0  0  0  0  0  0  0  0  0  0  0
  -12.2742   -3.5118    8.5112 C   0  0  0  0  0  0  0  0  0  0  0  0
  -13.2112   -2.5628    8.1308 C   0  0  0  0  0  0  0  0  0  0  0  0
  -13.8502   -2.3143    9.2673 N   0  0  0  0  0  0  0  0  0  0  0  0
  -13.5614   -3.2206   10.1957 N   0  0  0  0  0  0  0  0  0  0  0  0
  -12.7546  -11.0233   21.9492 N   0  0  0  0  0  0  0  0  0  0  0  0
  -13.8126  -11.8914   26.3017 H   0  0  0  0  0  0  0  0  0  0  0  0
  -13.1269  -13.3568   25.4990 H   0  0  0  0  0  0  0  0  0  0  0  0
  -14.8784  -13.1108   25.6028 H   0  0  0  0  0  0  0  0  0  0  0  0
  -11.7976  -11.5493   25.3714 H   0  0  0  0  0  0  0  0  0  0  0  0
  -10.0239  -10.6075   24.1286 H   0  0  0  0  0  0  0  0  0  0  0  0
  -10.0389  -10.0018   21.6854 H   0  0  0  0  0  0  0  0  0  0  0  0
  -12.8949   -9.2638   19.2694 H   0  0  0  0  0  0  0  0  0  0  0  0
  -12.6255   -7.9752   20.4471 H   0  0  0  0  0  0  0  0  0  0  0  0
   -9.5690   -8.1199   16.5814 H   0  0  0  0  0  0  0  0  0  0  0  0
   -9.5792   -9.3086   17.6162 H   0  0  0  0  0  0  0  0  0  0  0  0
   -9.5141   -7.4996   18.1866 H   0  0  0  0  0  0  0  0  0  0  0  0
  -10.0768   -6.4354   16.6556 H   0  0  0  0  0  0  0  0  0  0  0  0
  -11.3638   -5.7269   17.0305 H   0  0  0  0  0  0  0  0  0  0  0  0
   -9.9518   -6.6185   14.2687 H   0  0  0  0  0  0  0  0  0  0  0  0
  -11.6457   -7.1684   14.1202 H   0  0  0  0  0  0  0  0  0  0  0  0
  -11.7138   -4.1516   13.4660 H   0  0  0  0  0  0  0  0  0  0  0  0
  -11.7870   -3.9654    7.6780 H   0  0  0  0  0  0  0  0  0  0  0  0
  -13.4688   -2.1338    7.1736 H   0  0  0  0  0  0  0  0  0  0  0  0
  -14.6245   -1.6804    9.4376 H   0  0  0  0  0  0  0  0  0  0  0  0
  1  2  1  0
  2  3  1  0
  3  4  2  0
  4  5  1  0
  5  6  2  0
  6  7  1  0
  7  8  1  0
  8  9  1  0
  9 10  1  0
  9 11  1  0
 11 12  1  0
 12 13  1  0
 13 14  1  0
 14 15  2  0
 14 16  1  0
 16 17  1  0
 17 18  2  0
 18 19  1  0
 19 20  1  0
  7 21  2  0
 21  3  1  0
 20 16  2  0
  1 22  1  0
  1 23  1  0
  1 24  1  0
  4 25  1  0
  5 26  1  0
  6 27  1  0
  8 28  1  0
  8 29  1  0
 10 30  1  0
 10 31  1  0
 10 32  1  0
 11 33  1  0
 11 34  1  0
 12 35  1  0
 12 36  1  0
 13 37  1  0
 17 38  1  0
 18 39  1  0
 19 40  1  0
M  END
>  <Energy>  (1127) 
1022.4443713260393

>  <compound_id>  (1127) 
25880

>  <target_id>  (1127) 
1

>  <reference_id>  (1127) 
49

>  <inspiration_ids>  (1127) 
[49, 127]

>  <energy_score>  (1127) 
914.953582793579

>  <distance_score>  (1127) 
11.499660628003577

>  <path>  (1127) 
/opt/xchem-fragalysis-2/maxwin/BulkDock/SCRATCH/511024/C25880-P49/C25880-P49.minimised.mol

>  <scratch_subdir>  (1127) 
/opt/xchem-fragalysis-2/maxwin/BulkDock/SCRATCH/511024/C25880-P49

>  <fragmenstein_runtime>  (1127) 
25.965774536132812

>  <fragmenstein_outcome>  (1127) 
too moved

>  <fragmenstein_mode>  (1127) 
expansion

>  <fragmenstein_error>  (1127) 


$$$$
C25880-P127
     RDKit          3D

 40 41  0  0  0  0  0  0  0  0999 V2000
  -11.6283  -19.2873   21.0194 C   0  0  0  0  0  0  0  0  0  0  0  0
  -10.2655  -19.1899   21.4007 O   0  0  0  0  0  0  0  0  0  0  0  0
   -9.4564  -18.6173   20.4108 C   0  0  0  0  0  0  0  0  0  0  0  0
   -8.1242  -18.9516   20.5342 C   0  0  0  0  0  0  0  0  0  0  0  0
   -7.2249  -18.2859   19.7152 C   0  0  0  0  0  0  0  0  0  0  0  0
   -7.6653  -17.2748   18.8392 C   0  0  0  0  0  0  0  0  0  0  0  0
   -9.0162  -16.9447   18.7601 C   0  0  0  0  0  0  0  0  0  0  0  0
   -9.4280  -15.5674   18.0315 C   0  0  0  0  0  0  0  0  0  0  0  0
   -8.9889  -15.1457   16.6059 N   0  0  0  0  0  0  0  0  0  0  0  0
   -9.8110  -15.8192   15.5942 C   0  0  0  0  0  0  0  0  0  0  0  0
   -9.1166  -13.6525   16.3792 C   0  0  0  0  0  0  0  0  0  0  0  0
   -8.7818  -13.1275   14.9483 C   0  0  0  0  0  0  0  0  0  0  0  0
   -9.8734  -12.4747   14.2278 N   0  0  0  0  0  0  0  0  0  0  0  0
   -9.9038  -11.8387   12.9422 C   0  0  0  0  0  0  0  0  0  0  0  0
   -9.0635  -11.7490   12.0960 O   0  0  0  0  0  0  0  0  0  0  0  0
  -11.2012  -11.1130   12.7215 C   0  0  0  0  0  0  0  0  0  0  0  0
  -11.6401  -10.4759   11.5223 C   0  0  0  0  0  0  0  0  0  0  0  0
  -12.8906   -9.9727   11.7959 C   0  0  0  0  0  0  0  0  0  0  0  0
  -13.1286  -10.2728   13.0999 N   0  0  0  0  0  0  0  0  0  0  0  0
  -12.1210  -10.9396   13.6930 N   0  0  0  0  0  0  0  0  0  0  0  0
   -9.9297  -17.6466   19.5507 N   0  0  0  0  0  0  0  0  0  0  0  0
  -11.7351  -19.8102   20.0628 H   0  0  0  0  0  0  0  0  0  0  0  0
  -12.1526  -19.8682   21.7841 H   0  0  0  0  0  0  0  0  0  0  0  0
  -12.0959  -18.2989   20.9682 H   0  0  0  0  0  0  0  0  0  0  0  0
   -7.7913  -19.6939   21.2486 H   0  0  0  0  0  0  0  0  0  0  0  0
   -6.1630  -18.5123   19.7750 H   0  0  0  0  0  0  0  0  0  0  0  0
   -6.9401  -16.7090   18.2584 H   0  0  0  0  0  0  0  0  0  0  0  0
   -9.0320  -14.7957   18.7030 H   0  0  0  0  0  0  0  0  0  0  0  0
  -10.5153  -15.5300   18.0855 H   0  0  0  0  0  0  0  0  0  0  0  0
   -9.3735  -15.7380   14.5952 H   0  0  0  0  0  0  0  0  0  0  0  0
   -9.8565  -16.8940   15.8047 H   0  0  0  0  0  0  0  0  0  0  0  0
  -10.8371  -15.4421   15.5584 H   0  0  0  0  0  0  0  0  0  0  0  0
   -8.4100  -13.1807   17.0731 H   0  0  0  0  0  0  0  0  0  0  0  0
  -10.1177  -13.3262   16.6720 H   0  0  0  0  0  0  0  0  0  0  0  0
   -7.9915  -12.3714   15.0320 H   0  0  0  0  0  0  0  0  0  0  0  0
   -8.3618  -13.8962   14.2932 H   0  0  0  0  0  0  0  0  0  0  0  0
  -10.7492  -12.2775   14.7166 H   0  0  0  0  0  0  0  0  0  0  0  0
  -11.1016  -10.4295   10.5850 H   0  0  0  0  0  0  0  0  0  0  0  0
  -13.6148   -9.4446   11.1927 H   0  0  0  0  0  0  0  0  0  0  0  0
  -13.9621  -10.0814   13.6478 H   0  0  0  0  0  0  0  0  0  0  0  0
  1  2  1  0
  2  3  1  0
  3  4  2  0
  4  5  1  0
  5  6  2  0
  6  7  1  0
  7  8  1  0
  8  9  1  0
  9 10  1  0
  9 11  1  0
 11 12  1  0
 12 13  1  0
 13 14  1  0
 14 15  2  0
 14 16  1  0
 16 17  1  0
 17 18  2  0
 18 19  1  0
 19 20  1  0
  7 21  2  0
 21  3  1  0
 20 16  2  0
  1 22  1  0
  1 23  1  0
  1 24  1  0
  4 25  1  0
  5 26  1  0
  6 27  1  0
  8 28  1  0
  8 29  1  0
 10 30  1  0
 10 31  1  0
 10 32  1  0
 11 33  1  0
 11 34  1  0
 12 35  1  0
 12 36  1  0
 13 37  1  0
 17 38  1  0
 18 39  1  0
 19 40  1  0
M  END
>  <Energy>  (1128) 
89.269516523605617

>  <compound_id>  (1128) 
25880

>  <target_id>  (1128) 
1

>  <reference_id>  (1128) 
127

>  <inspiration_ids>  (1128) 
[49, 127]

>  <energy_score>  (1128) 
-18.221272008846086

>  <distance_score>  (1128) 
13.723965401069979

>  <path>  (1128) 
/opt/xchem-fragalysis-2/maxwin/BulkDock/SCRATCH/511024/C25880-P127/C25880-P127.minimised.mol

>  <scratch_subdir>  (1128) 
/opt/xchem-fragalysis-2/maxwin/BulkDock/SCRATCH/511024/C25880-P127

>  <fragmenstein_runtime>  (1128) 
26.276272773742676

>  <fragmenstein_outcome>  (1128) 
too moved

>  <fragmenstein_mode>  (1128) 
expansion

>  <fragmenstein_error>  (1128) 


$$$$
C25881-P49
     RDKit          3D

 36 37  0  0  0  0  0  0  0  0999 V2000
  -13.4638   -3.4170   17.1438 C   0  0  0  0  0  0  0  0  0  0  0  0
  -12.2168   -3.0971   17.7919 N   0  0  0  0  0  0  0  0  0  0  0  0
  -10.8724   -3.1668   16.2515 C   0  0  0  0  0  0  0  0  0  0  0  0
   -9.6093   -2.6897   14.5809 C   0  0  0  0  0  0  0  0  0  0  0  0
   -9.0721   -2.8792   12.6154 N   0  0  0  0  0  0  0  0  0  0  0  0
   -8.1991   -1.6417   11.3778 C   0  0  0  0  0  0  0  0  0  0  0  0
   -7.7926   -0.5988   11.7807 O   0  0  0  0  0  0  0  0  0  0  0  0
   -8.0322   -1.6910    9.4112 C   0  0  0  0  0  0  0  0  0  0  0  0
   -9.1198   -1.7941    8.0702 C   0  0  0  0  0  0  0  0  0  0  0  0
   -8.5516   -1.8518    6.7690 C   0  0  0  0  0  0  0  0  0  0  0  0
   -7.1688   -1.7040    6.9924 N   0  0  0  0  0  0  0  0  0  0  0  0
   -6.8881   -1.5006    8.5320 N   0  0  0  0  0  0  0  0  0  0  0  0
  -12.8018   -3.2834   19.7487 C   0  0  0  0  0  0  0  0  0  0  0  0
  -13.3107   -4.1887   21.5813 C   0  0  0  0  0  0  0  0  0  0  0  0
  -13.5149   -5.8835   21.8488 C   0  0  0  0  0  0  0  0  0  0  0  0
  -12.9547   -7.1943   22.9199 C   0  0  0  0  0  0  0  0  0  0  0  0
  -12.2663   -6.6604   24.6060 C   0  0  0  0  0  0  0  0  0  0  0  0
  -11.9411   -7.5204   25.6153 F   0  0  0  0  0  0  0  0  0  0  0  0
  -12.2849   -4.8380   24.5438 C   0  0  0  0  0  0  0  0  0  0  0  0
  -12.6911   -3.8241   23.1155 N   0  0  0  0  0  0  0  0  0  0  0  0
  -13.3866   -3.3409   16.0674 H   0  0  0  0  0  0  0  0  0  0  0  0
  -14.2190   -2.7197   17.4886 H   0  0  0  0  0  0  0  0  0  0  0  0
  -13.8419   -4.3827   17.4472 H   0  0  0  0  0  0  0  0  0  0  0  0
  -11.6347   -2.6636   15.6564 H   0  0  0  0  0  0  0  0  0  0  0  0
  -10.2705   -2.4869   16.8712 H   0  0  0  0  0  0  0  0  0  0  0  0
   -9.5656   -1.6140   14.7424 H   0  0  0  0  0  0  0  0  0  0  0  0
   -8.7759   -3.2800   14.9748 H   0  0  0  0  0  0  0  0  0  0  0  0
   -9.2771   -3.7414   12.1300 H   0  0  0  0  0  0  0  0  0  0  0  0
  -10.1795   -1.9111    8.0850 H   0  0  0  0  0  0  0  0  0  0  0  0
   -8.9615   -1.9672    5.7761 H   0  0  0  0  0  0  0  0  0  0  0  0
   -6.3609   -1.7131    6.3754 H   0  0  0  0  0  0  0  0  0  0  0  0
  -12.1954   -2.4514   20.1441 H   0  0  0  0  0  0  0  0  0  0  0  0
  -13.8084   -2.8684   19.5962 H   0  0  0  0  0  0  0  0  0  0  0  0
  -14.0416   -6.5015   21.1892 H   0  0  0  0  0  0  0  0  0  0  0  0
  -12.6671   -8.1210   22.4637 H   0  0  0  0  0  0  0  0  0  0  0  0
  -11.9315   -4.2381   25.3761 H   0  0  0  0  0  0  0  0  0  0  0  0
  1  2  1  0
  2  3  1  0
  3  4  1  0
  4  5  1  0
  5  6  1  0
  6  7  2  0
  6  8  1  0
  8  9  1  0
  9 10  2  0
 10 11  1  0
 11 12  1  0
  2 13  1  0
 13 14  1  0
 14 15  2  0
 15 16  1  0
 16 17  2  0
 17 18  1  0
 17 19  1  0
 19 20  2  0
 12  8  2  0
 20 14  1  0
  1 21  1  0
  1 22  1  0
  1 23  1  0
  3 24  1  0
  3 25  1  0
  4 26  1  0
  4 27  1  0
  5 28  1  0
  9 29  1  0
 10 30  1  0
 11 31  1  0
 13 32  1  0
 13 33  1  0
 15 34  1  0
 16 35  1  0
 19 36  1  0
M  END
>  <Energy>  (1129) 
1373.8836022107698

>  <compound_id>  (1129) 
25881

>  <target_id>  (1129) 
1

>  <reference_id>  (1129) 
49

>  <inspiration_ids>  (1129) 
[49, 127]

>  <energy_score>  (1129) 
1245.7611748019165

>  <distance_score>  (1129) 
13.956476916626126

>  <path>  (1129) 
/opt/xchem-fragalysis-2/maxwin/BulkDock/SCRATCH/511024/C25881-P49/C25881-P49.minimised.mol

>  <scratch_subdir>  (1129) 
/opt/xchem-fragalysis-2/maxwin/BulkDock/SCRATCH/511024/C25881-P49

>  <fragmenstein_runtime>  (1129) 
15.958871841430664

>  <fragmenstein_outcome>  (1129) 
too moved

>  <fragmenstein_mode>  (1129) 
expansion

>  <fragmenstein_error>  (1129) 


$$$$
C25881-P127
     RDKit          3D

 36 37  0  0  0  0  0  0  0  0999 V2000
  -14.4392   -4.5318   23.9770 C   0  0  0  0  0  0  0  0  0  0  0  0
  -13.1163   -4.8803   23.3778 N   0  0  0  0  0  0  0  0  0  0  0  0
  -12.3612   -3.5559   23.4711 C   0  0  0  0  0  0  0  0  0  0  0  0
  -13.0673   -2.1931   23.1152 C   0  0  0  0  0  0  0  0  0  0  0  0
  -12.9576   -1.7515   21.7265 N   0  0  0  0  0  0  0  0  0  0  0  0
  -13.5223   -0.6188   21.0533 C   0  0  0  0  0  0  0  0  0  0  0  0
  -14.2923    0.2122   21.4360 O   0  0  0  0  0  0  0  0  0  0  0  0
  -12.9853   -0.4769   19.6584 C   0  0  0  0  0  0  0  0  0  0  0  0
  -13.2466    0.6048   18.7614 C   0  0  0  0  0  0  0  0  0  0  0  0
  -12.5174    0.3457   17.6285 C   0  0  0  0  0  0  0  0  0  0  0  0
  -11.8694   -0.8268   17.8714 N   0  0  0  0  0  0  0  0  0  0  0  0
  -12.1604   -1.3766   19.0768 N   0  0  0  0  0  0  0  0  0  0  0  0
  -12.7403   -6.4294   24.0782 C   0  0  0  0  0  0  0  0  0  0  0  0
  -11.8595   -8.0486   24.1073 C   0  0  0  0  0  0  0  0  0  0  0  0
  -11.4913   -9.0091   23.1132 C   0  0  0  0  0  0  0  0  0  0  0  0
  -11.3808  -10.6628   23.5762 C   0  0  0  0  0  0  0  0  0  0  0  0
  -11.4273  -11.1998   24.8846 C   0  0  0  0  0  0  0  0  0  0  0  0
  -11.4801  -12.4517   25.3051 F   0  0  0  0  0  0  0  0  0  0  0  0
  -11.5319  -10.2283   25.7927 C   0  0  0  0  0  0  0  0  0  0  0  0
  -11.6781   -8.7424   25.4240 N   0  0  0  0  0  0  0  0  0  0  0  0
  -15.0265   -5.3965   24.3071 H   0  0  0  0  0  0  0  0  0  0  0  0
  -15.0627   -3.9944   23.2551 H   0  0  0  0  0  0  0  0  0  0  0  0
  -14.3218   -3.9323   24.8891 H   0  0  0  0  0  0  0  0  0  0  0  0
  -11.5655   -3.4977   22.7322 H   0  0  0  0  0  0  0  0  0  0  0  0
  -11.9578   -3.4754   24.4876 H   0  0  0  0  0  0  0  0  0  0  0  0
  -12.5575   -1.4087   23.6898 H   0  0  0  0  0  0  0  0  0  0  0  0
  -14.1147   -2.1201   23.4144 H   0  0  0  0  0  0  0  0  0  0  0  0
  -12.4009   -2.2886   21.0615 H   0  0  0  0  0  0  0  0  0  0  0  0
  -13.8824    1.4590   18.9496 H   0  0  0  0  0  0  0  0  0  0  0  0
  -12.4048    0.8758   16.6928 H   0  0  0  0  0  0  0  0  0  0  0  0
  -11.2515   -1.3335   17.2447 H   0  0  0  0  0  0  0  0  0  0  0  0
  -13.1638   -6.3250   25.0847 H   0  0  0  0  0  0  0  0  0  0  0  0
  -13.3882   -6.9072   23.3747 H   0  0  0  0  0  0  0  0  0  0  0  0
  -11.6761   -8.7374   22.0831 H   0  0  0  0  0  0  0  0  0  0  0  0
  -11.4684  -11.4273   22.8137 H   0  0  0  0  0  0  0  0  0  0  0  0
  -11.4963  -10.4038   26.8703 H   0  0  0  0  0  0  0  0  0  0  0  0
  1  2  1  0
  2  3  1  0
  3  4  1  0
  4  5  1  0
  5  6  1  0
  6  7  2  0
  6  8  1  0
  8  9  1  0
  9 10  2  0
 10 11  1  0
 11 12  1  0
  2 13  1  0
 13 14  1  0
 14 15  2  0
 15 16  1  0
 16 17  2  0
 17 18  1  0
 17 19  1  0
 19 20  2  0
 12  8  2  0
 20 14  1  0
  1 21  1  0
  1 22  1  0
  1 23  1  0
  3 24  1  0
  3 25  1  0
  4 26  1  0
  4 27  1  0
  5 28  1  0
  9 29  1  0
 10 30  1  0
 11 31  1  0
 13 32  1  0
 13 33  1  0
 15 34  1  0
 16 35  1  0
 19 36  1  0
M  END
>  <Energy>  (1130) 
292.21979151088476

>  <compound_id>  (1130) 
25881

>  <target_id>  (1130) 
1

>  <reference_id>  (1130) 
127

>  <inspiration_ids>  (1130) 
[49, 127]

>  <energy_score>  (1130) 
164.0973641020405

>  <distance_score>  (1130) 
14.074173615019756

>  <path>  (1130) 
/opt/xchem-fragalysis-2/maxwin/BulkDock/SCRATCH/511024/C25881-P127/C25881-P127.minimised.mol

>  <scratch_subdir>  (1130) 
/opt/xchem-fragalysis-2/maxwin/BulkDock/SCRATCH/511024/C25881-P127

>  <fragmenstein_runtime>  (1130) 
17.173277378082275

>  <fragmenstein_outcome>  (1130) 
too moved

>  <fragmenstein_mode>  (1130) 
expansion

>  <fragmenstein_error>  (1130) 


$$$$
C25882-P49
     RDKit          3D

 40 41  0  0  0  0  0  0  0  0999 V2000
  -14.6967  -18.0858   16.3858 C   0  0  0  0  0  0  0  0  0  0  0  0
  -13.5039  -17.8654   17.1276 O   0  0  0  0  0  0  0  0  0  0  0  0
  -12.6671  -16.8804   16.6785 C   0  0  0  0  0  0  0  0  0  0  0  0
  -11.5032  -16.7240   17.4136 C   0  0  0  0  0  0  0  0  0  0  0  0
  -10.6399  -15.7234   17.0076 C   0  0  0  0  0  0  0  0  0  0  0  0
  -10.8255  -14.9153   15.9194 N   0  0  0  0  0  0  0  0  0  0  0  0
  -11.9652  -15.0507   15.1925 C   0  0  0  0  0  0  0  0  0  0  0  0
  -12.0952  -14.3044   13.7851 C   0  0  0  0  0  0  0  0  0  0  0  0
  -12.2766  -12.8031   13.6685 N   0  0  0  0  0  0  0  0  0  0  0  0
  -13.5773  -12.3691   14.1644 C   0  0  0  0  0  0  0  0  0  0  0  0
  -12.0137  -12.2432   12.2976 C   0  0  0  0  0  0  0  0  0  0  0  0
  -11.8615  -10.7034   12.2693 C   0  0  0  0  0  0  0  0  0  0  0  0
  -11.7472  -10.0530   10.9862 N   0  0  0  0  0  0  0  0  0  0  0  0
  -11.0694  -10.4421    9.7998 C   0  0  0  0  0  0  0  0  0  0  0  0
  -10.4833  -11.4475    9.5293 O   0  0  0  0  0  0  0  0  0  0  0  0
  -11.0707   -9.3029    8.8359 C   0  0  0  0  0  0  0  0  0  0  0  0
  -10.4618   -9.2815    7.5549 C   0  0  0  0  0  0  0  0  0  0  0  0
  -10.6670   -8.0204    7.0635 C   0  0  0  0  0  0  0  0  0  0  0  0
  -11.3374   -7.3541    8.0354 N   0  0  0  0  0  0  0  0  0  0  0  0
  -11.6427   -8.1040    9.1128 N   0  0  0  0  0  0  0  0  0  0  0  0
  -12.9015  -16.0381   15.5679 C   0  0  0  0  0  0  0  0  0  0  0  0
  -15.2419  -18.9048   16.8648 H   0  0  0  0  0  0  0  0  0  0  0  0
  -15.3413  -17.2008   16.4046 H   0  0  0  0  0  0  0  0  0  0  0  0
  -14.4722  -18.3907   15.3584 H   0  0  0  0  0  0  0  0  0  0  0  0
  -11.2870  -17.3285   18.2831 H   0  0  0  0  0  0  0  0  0  0  0  0
   -9.7386  -15.5158   17.5695 H   0  0  0  0  0  0  0  0  0  0  0  0
  -12.8946  -14.7959   13.2153 H   0  0  0  0  0  0  0  0  0  0  0  0
  -11.1570  -14.5587   13.2741 H   0  0  0  0  0  0  0  0  0  0  0  0
  -13.6498  -11.2845   14.2688 H   0  0  0  0  0  0  0  0  0  0  0  0
  -13.7559  -12.7688   15.1691 H   0  0  0  0  0  0  0  0  0  0  0  0
  -14.3925  -12.7127   13.5180 H   0  0  0  0  0  0  0  0  0  0  0  0
  -11.0802  -12.6770   11.9196 H   0  0  0  0  0  0  0  0  0  0  0  0
  -12.8097  -12.5565   11.6106 H   0  0  0  0  0  0  0  0  0  0  0  0
  -10.9511  -10.4218   12.8002 H   0  0  0  0  0  0  0  0  0  0  0  0
  -12.7072  -10.2101   12.7530 H   0  0  0  0  0  0  0  0  0  0  0  0
  -12.0596   -9.0879   10.8872 H   0  0  0  0  0  0  0  0  0  0  0  0
   -9.9352  -10.0948    7.0736 H   0  0  0  0  0  0  0  0  0  0  0  0
  -10.3871   -7.5421    6.1352 H   0  0  0  0  0  0  0  0  0  0  0  0
  -11.6393   -6.3832    7.9966 H   0  0  0  0  0  0  0  0  0  0  0  0
  -13.7859  -16.1561   14.9524 H   0  0  0  0  0  0  0  0  0  0  0  0
  1  2  1  0
  2  3  1  0
  3  4  2  0
  4  5  1  0
  5  6  2  0
  6  7  1  0
  7  8  1  0
  8  9  1  0
  9 10  1  0
  9 11  1  0
 11 12  1  0
 12 13  1  0
 13 14  1  0
 14 15  2  0
 14 16  1  0
 16 17  1  0
 17 18  2  0
 18 19  1  0
 19 20  1  0
  7 21  2  0
 21  3  1  0
 20 16  2  0
  1 22  1  0
  1 23  1  0
  1 24  1  0
  4 25  1  0
  5 26  1  0
  8 27  1  0
  8 28  1  0
 10 29  1  0
 10 30  1  0
 10 31  1  0
 11 32  1  0
 11 33  1  0
 12 34  1  0
 12 35  1  0
 13 36  1  0
 17 37  1  0
 18 38  1  0
 19 39  1  0
 21 40  1  0
M  END
>  <Energy>  (1131) 
89.262124346907655

>  <compound_id>  (1131) 
25882

>  <target_id>  (1131) 
1

>  <reference_id>  (1131) 
49

>  <inspiration_ids>  (1131) 
[49, 127]

>  <energy_score>  (1131) 
-24.336441644866795

>  <distance_score>  (1131) 
14.146393368240325

>  <path>  (1131) 
/opt/xchem-fragalysis-2/maxwin/BulkDock/SCRATCH/511024/C25882-P49/C25882-P49.minimised.mol

>  <scratch_subdir>  (1131) 
/opt/xchem-fragalysis-2/maxwin/BulkDock/SCRATCH/511024/C25882-P49

>  <fragmenstein_runtime>  (1131) 
27.008082628250122

>  <fragmenstein_outcome>  (1131) 
too moved

>  <fragmenstein_mode>  (1131) 
expansion

>  <fragmenstein_error>  (1131) 


$$$$
C25882-P127
     RDKit          3D

 40 41  0  0  0  0  0  0  0  0999 V2000
  -11.9631  -12.1387   24.6023 C   0  0  0  0  0  0  0  0  0  0  0  0
  -11.7631  -12.5704   23.2148 O   0  0  0  0  0  0  0  0  0  0  0  0
  -11.5855  -14.0841   22.2005 C   0  0  0  0  0  0  0  0  0  0  0  0
  -12.2370  -15.7802   21.8838 C   0  0  0  0  0  0  0  0  0  0  0  0
  -12.1555  -16.1030   20.1580 C   0  0  0  0  0  0  0  0  0  0  0  0
  -11.3177  -15.2124   18.8554 N   0  0  0  0  0  0  0  0  0  0  0  0
  -10.6809  -13.5498   19.0181 C   0  0  0  0  0  0  0  0  0  0  0  0
  -11.0751  -12.0828   17.5160 C   0  0  0  0  0  0  0  0  0  0  0  0
  -12.0602  -11.4007   15.8181 N   0  0  0  0  0  0  0  0  0  0  0  0
  -13.5648  -10.9604   16.0566 C   0  0  0  0  0  0  0  0  0  0  0  0
  -12.1753  -10.6607   14.0057 C   0  0  0  0  0  0  0  0  0  0  0  0
  -13.2931   -9.3305   12.8920 C   0  0  0  0  0  0  0  0  0  0  0  0
  -14.1281   -8.6197   11.2573 N   0  0  0  0  0  0  0  0  0  0  0  0
  -14.0303   -6.9376   10.4181 C   0  0  0  0  0  0  0  0  0  0  0  0
  -13.2749   -6.2174   10.9178 O   0  0  0  0  0  0  0  0  0  0  0  0
  -14.9095   -5.9986    8.9996 C   0  0  0  0  0  0  0  0  0  0  0  0
  -14.1433   -4.3796    8.0556 C   0  0  0  0  0  0  0  0  0  0  0  0
  -14.5099   -3.6318    6.9607 C   0  0  0  0  0  0  0  0  0  0  0  0
  -15.5201   -4.0531    7.6077 N   0  0  0  0  0  0  0  0  0  0  0  0
  -15.8173   -5.7615    8.1032 N   0  0  0  0  0  0  0  0  0  0  0  0
  -11.0010  -13.2953   20.9420 C   0  0  0  0  0  0  0  0  0  0  0  0
  -11.3182  -12.5526   25.3750 H   0  0  0  0  0  0  0  0  0  0  0  0
  -13.0049  -12.2352   24.9080 H   0  0  0  0  0  0  0  0  0  0  0  0
  -11.6210  -11.1048   24.6174 H   0  0  0  0  0  0  0  0  0  0  0  0
  -12.8404  -16.3490   22.5792 H   0  0  0  0  0  0  0  0  0  0  0  0
  -12.5794  -17.0208   19.7465 H   0  0  0  0  0  0  0  0  0  0  0  0
  -11.1041  -12.8484   16.8400 H   0  0  0  0  0  0  0  0  0  0  0  0
  -11.8319  -11.5495   18.0308 H   0  0  0  0  0  0  0  0  0  0  0  0
  -14.2407  -11.6381   15.5181 H   0  0  0  0  0  0  0  0  0  0  0  0
  -13.8362  -10.8987   17.1130 H   0  0  0  0  0  0  0  0  0  0  0  0
  -13.7643   -9.9687   15.6412 H   0  0  0  0  0  0  0  0  0  0  0  0
  -12.4133  -11.6027   13.4953 H   0  0  0  0  0  0  0  0  0  0  0  0
  -11.1288  -10.4045   13.8035 H   0  0  0  0  0  0  0  0  0  0  0  0
  -14.2443   -9.4730   13.4218 H   0  0  0  0  0  0  0  0  0  0  0  0
  -12.8276   -8.4133   13.2582 H   0  0  0  0  0  0  0  0  0  0  0  0
  -14.7437   -9.2067   10.7085 H   0  0  0  0  0  0  0  0  0  0  0  0
  -13.1846   -3.8631    7.9560 H   0  0  0  0  0  0  0  0  0  0  0  0
  -14.1945   -2.6809    6.5405 H   0  0  0  0  0  0  0  0  0  0  0  0
  -16.3062   -3.4280    7.8031 H   0  0  0  0  0  0  0  0  0  0  0  0
  -10.1481  -12.6903   21.3027 H   0  0  0  0  0  0  0  0  0  0  0  0
  1  2  1  0
  2  3  1  0
  3  4  2  0
  4  5  1  0
  5  6  2  0
  6  7  1  0
  7  8  1  0
  8  9  1  0
  9 10  1  0
  9 11  1  0
 11 12  1  0
 12 13  1  0
 13 14  1  0
 14 15  2  0
 14 16  1  0
 16 17  1  0
 17 18  2  0
 18 19  1  0
 19 20  1  0
  7 21  2  0
 21  3  1  0
 20 16  2  0
  1 22  1  0
  1 23  1  0
  1 24  1  0
  4 25  1  0
  5 26  1  0
  8 27  1  0
  8 28  1  0
 10 29  1  0
 10 30  1  0
 10 31  1  0
 11 32  1  0
 11 33  1  0
 12 34  1  0
 12 35  1  0
 13 36  1  0
 17 37  1  0
 18 38  1  0
 19 39  1  0
 21 40  1  0
M  END
>  <Energy>  (1132) 
1608.4703558548906

>  <compound_id>  (1132) 
25882

>  <target_id>  (1132) 
1

>  <reference_id>  (1132) 
127

>  <inspiration_ids>  (1132) 
[49, 127]

>  <energy_score>  (1132) 
1494.8717898631003

>  <distance_score>  (1132) 
11.83646576379045

>  <path>  (1132) 
/opt/xchem-fragalysis-2/maxwin/BulkDock/SCRATCH/511024/C25882-P127/C25882-P127.minimised.mol

>  <scratch_subdir>  (1132) 
/opt/xchem-fragalysis-2/maxwin/BulkDock/SCRATCH/511024/C25882-P127

>  <fragmenstein_runtime>  (1132) 
16.13648819923401

>  <fragmenstein_outcome>  (1132) 
too moved

>  <fragmenstein_mode>  (1132) 
expansion

>  <fragmenstein_error>  (1132) 


$$$$
C25883-P49
     RDKit          3D

 43 44  0  0  0  0  0  0  0  0999 V2000
   -4.6196  -18.6870   23.6680 C   0  0  0  0  0  0  0  0  0  0  0  0
   -4.8298  -17.3507   22.9578 C   0  0  0  0  0  0  0  0  0  0  0  0
   -3.7959  -17.0971   21.9732 O   0  0  0  0  0  0  0  0  0  0  0  0
   -3.0496  -15.9210   22.0777 C   0  0  0  0  0  0  0  0  0  0  0  0
   -2.5609  -15.5189   23.3035 C   0  0  0  0  0  0  0  0  0  0  0  0
   -1.7471  -14.3851   23.3330 C   0  0  0  0  0  0  0  0  0  0  0  0
   -1.4133  -13.6784   22.1515 C   0  0  0  0  0  0  0  0  0  0  0  0
   -1.8947  -14.0984   20.9087 C   0  0  0  0  0  0  0  0  0  0  0  0
   -1.4553  -13.2444   19.5159 C   0  0  0  0  0  0  0  0  0  0  0  0
   -2.2602  -12.0438   18.8129 N   0  0  0  0  0  0  0  0  0  0  0  0
   -2.1326  -12.1196   17.3248 C   0  0  0  0  0  0  0  0  0  0  0  0
   -1.8266  -10.6447   19.1422 C   0  0  0  0  0  0  0  0  0  0  0  0
   -2.8980   -9.5184   19.0338 C   0  0  0  0  0  0  0  0  0  0  0  0
   -3.3188   -8.8845   17.7826 N   0  0  0  0  0  0  0  0  0  0  0  0
   -3.1909   -7.5223   17.3229 C   0  0  0  0  0  0  0  0  0  0  0  0
   -2.6356   -6.5822   17.8136 O   0  0  0  0  0  0  0  0  0  0  0  0
   -3.9858   -7.2431   16.0580 C   0  0  0  0  0  0  0  0  0  0  0  0
   -4.3081   -5.9377   15.5423 C   0  0  0  0  0  0  0  0  0  0  0  0
   -5.2128   -6.1327   14.5254 C   0  0  0  0  0  0  0  0  0  0  0  0
   -5.3762   -7.4821   14.4448 N   0  0  0  0  0  0  0  0  0  0  0  0
   -4.6369   -8.1789   15.3358 N   0  0  0  0  0  0  0  0  0  0  0  0
   -2.7166  -15.2409   20.8872 N   0  0  0  0  0  0  0  0  0  0  0  0
   -3.6762  -18.6777   24.2228 H   0  0  0  0  0  0  0  0  0  0  0  0
   -5.4392  -18.8924   24.3621 H   0  0  0  0  0  0  0  0  0  0  0  0
   -4.5553  -19.5012   22.9391 H   0  0  0  0  0  0  0  0  0  0  0  0
   -4.9371  -16.5336   23.6793 H   0  0  0  0  0  0  0  0  0  0  0  0
   -5.7713  -17.4194   22.4042 H   0  0  0  0  0  0  0  0  0  0  0  0
   -2.7654  -16.0666   24.2140 H   0  0  0  0  0  0  0  0  0  0  0  0
   -1.3447  -14.0427   24.2846 H   0  0  0  0  0  0  0  0  0  0  0  0
   -0.7677  -12.8067   22.2184 H   0  0  0  0  0  0  0  0  0  0  0  0
   -1.4199  -14.0556   18.7772 H   0  0  0  0  0  0  0  0  0  0  0  0
   -0.4210  -12.9105   19.6647 H   0  0  0  0  0  0  0  0  0  0  0  0
   -2.3138  -13.1325   16.9542 H   0  0  0  0  0  0  0  0  0  0  0  0
   -2.8621  -11.4668   16.8382 H   0  0  0  0  0  0  0  0  0  0  0  0
   -1.1238  -11.8487   16.9920 H   0  0  0  0  0  0  0  0  0  0  0  0
   -1.5420  -10.6691   20.2025 H   0  0  0  0  0  0  0  0  0  0  0  0
   -0.9171  -10.3585   18.5994 H   0  0  0  0  0  0  0  0  0  0  0  0
   -2.5523   -8.6937   19.6699 H   0  0  0  0  0  0  0  0  0  0  0  0
   -3.8198   -9.8810   19.4914 H   0  0  0  0  0  0  0  0  0  0  0  0
   -3.7909   -9.4326   17.0670 H   0  0  0  0  0  0  0  0  0  0  0  0
   -3.9484   -4.9951   15.9325 H   0  0  0  0  0  0  0  0  0  0  0  0
   -5.7442   -5.4545   13.8759 H   0  0  0  0  0  0  0  0  0  0  0  0
   -5.9705   -8.0049   13.8087 H   0  0  0  0  0  0  0  0  0  0  0  0
  1  2  1  0
  2  3  1  0
  3  4  1  0
  4  5  2  0
  5  6  1  0
  6  7  2  0
  7  8  1  0
  8  9  1  0
  9 10  1  0
 10 11  1  0
 10 12  1  0
 12 13  1  0
 13 14  1  0
 14 15  1  0
 15 16  2  0
 15 17  1  0
 17 18  1  0
 18 19  2  0
 19 20  1  0
 20 21  1  0
  8 22  2  0
 22  4  1  0
 21 17  2  0
  1 23  1  0
  1 24  1  0
  1 25  1  0
  2 26  1  0
  2 27  1  0
  5 28  1  0
  6 29  1  0
  7 30  1  0
  9 31  1  0
  9 32  1  0
 11 33  1  0
 11 34  1  0
 11 35  1  0
 12 36  1  0
 12 37  1  0
 13 38  1  0
 13 39  1  0
 14 40  1  0
 18 41  1  0
 19 42  1  0
 20 43  1  0
M  END
>  <Energy>  (1133) 
119.58281899210296

>  <compound_id>  (1133) 
25883

>  <target_id>  (1133) 
1

>  <reference_id>  (1133) 
49

>  <inspiration_ids>  (1133) 
[49, 127]

>  <energy_score>  (1133) 
19.31313633161301

>  <distance_score>  (1133) 
14.728546182541399

>  <path>  (1133) 
/opt/xchem-fragalysis-2/maxwin/BulkDock/SCRATCH/511024/C25883-P49/C25883-P49.minimised.mol

>  <scratch_subdir>  (1133) 
/opt/xchem-fragalysis-2/maxwin/BulkDock/SCRATCH/511024/C25883-P49

>  <fragmenstein_runtime>  (1133) 
43.240052938461304

>  <fragmenstein_outcome>  (1133) 
too moved

>  <fragmenstein_mode>  (1133) 
expansion

>  <fragmenstein_error>  (1133) 


$$$$
C25883-P127
     RDKit          3D

 43 44  0  0  0  0  0  0  0  0999 V2000
   -8.4422  -23.0544   21.3928 C   0  0  0  0  0  0  0  0  0  0  0  0
   -8.9879  -21.8054   20.7183 C   0  0  0  0  0  0  0  0  0  0  0  0
   -8.4287  -21.6606   19.4008 O   0  0  0  0  0  0  0  0  0  0  0  0
   -7.5507  -20.6171   19.1597 C   0  0  0  0  0  0  0  0  0  0  0  0
   -6.7125  -20.1465   20.1569 C   0  0  0  0  0  0  0  0  0  0  0  0
   -5.8629  -19.1017   19.8337 C   0  0  0  0  0  0  0  0  0  0  0  0
   -5.8760  -18.5516   18.5362 C   0  0  0  0  0  0  0  0  0  0  0  0
   -6.7544  -19.0078   17.5489 C   0  0  0  0  0  0  0  0  0  0  0  0
   -6.6454  -18.3304   16.0545 C   0  0  0  0  0  0  0  0  0  0  0  0
   -7.3741  -17.0115   15.6327 N   0  0  0  0  0  0  0  0  0  0  0  0
   -8.6815  -17.3540   15.0779 C   0  0  0  0  0  0  0  0  0  0  0  0
   -6.6588  -16.0656   14.6769 C   0  0  0  0  0  0  0  0  0  0  0  0
   -7.1524  -15.7888   13.1905 C   0  0  0  0  0  0  0  0  0  0  0  0
   -7.8853  -14.5396   12.9315 N   0  0  0  0  0  0  0  0  0  0  0  0
   -9.2848  -14.2971   12.6933 C   0  0  0  0  0  0  0  0  0  0  0  0
  -10.2217  -15.0414   12.7233 O   0  0  0  0  0  0  0  0  0  0  0  0
   -9.5682  -12.8296   12.3925 C   0  0  0  0  0  0  0  0  0  0  0  0
  -10.8564  -12.1995   12.3955 C   0  0  0  0  0  0  0  0  0  0  0  0
  -10.6487  -10.8797   12.0776 C   0  0  0  0  0  0  0  0  0  0  0  0
   -9.3074  -10.7589   11.8876 N   0  0  0  0  0  0  0  0  0  0  0  0
   -8.6194  -11.9117   12.0843 N   0  0  0  0  0  0  0  0  0  0  0  0
   -7.5535  -20.1010   17.8577 N   0  0  0  0  0  0  0  0  0  0  0  0
   -8.5434  -23.9200   20.7300 H   0  0  0  0  0  0  0  0  0  0  0  0
   -8.9719  -23.2612   22.3223 H   0  0  0  0  0  0  0  0  0  0  0  0
   -7.3743  -22.9456   21.6044 H   0  0  0  0  0  0  0  0  0  0  0  0
  -10.0676  -21.9301   20.5784 H   0  0  0  0  0  0  0  0  0  0  0  0
   -8.8611  -20.9095   21.3313 H   0  0  0  0  0  0  0  0  0  0  0  0
   -6.6751  -20.5792   21.1471 H   0  0  0  0  0  0  0  0  0  0  0  0
   -5.1707  -18.7147   20.5772 H   0  0  0  0  0  0  0  0  0  0  0  0
   -5.1643  -17.7751   18.2797 H   0  0  0  0  0  0  0  0  0  0  0  0
   -6.8877  -19.1265   15.3391 H   0  0  0  0  0  0  0  0  0  0  0  0
   -5.5700  -18.1455   15.9344 H   0  0  0  0  0  0  0  0  0  0  0  0
   -8.6087  -18.1174   14.2943 H   0  0  0  0  0  0  0  0  0  0  0  0
   -9.3292  -17.7489   15.8670 H   0  0  0  0  0  0  0  0  0  0  0  0
   -9.1690  -16.4928   14.6346 H   0  0  0  0  0  0  0  0  0  0  0  0
   -5.6237  -16.4193   14.5965 H   0  0  0  0  0  0  0  0  0  0  0  0
   -6.5980  -15.1066   15.2004 H   0  0  0  0  0  0  0  0  0  0  0  0
   -6.2561  -15.7167   12.5626 H   0  0  0  0  0  0  0  0  0  0  0  0
   -7.7364  -16.6238   12.7938 H   0  0  0  0  0  0  0  0  0  0  0  0
   -7.3637  -13.6872   12.7359 H   0  0  0  0  0  0  0  0  0  0  0  0
  -11.8013  -12.6784   12.6166 H   0  0  0  0  0  0  0  0  0  0  0  0
  -11.3239  -10.0450   11.9680 H   0  0  0  0  0  0  0  0  0  0  0  0
   -8.7907   -9.9237   11.6271 H   0  0  0  0  0  0  0  0  0  0  0  0
  1  2  1  0
  2  3  1  0
  3  4  1  0
  4  5  2  0
  5  6  1  0
  6  7  2  0
  7  8  1  0
  8  9  1  0
  9 10  1  0
 10 11  1  0
 10 12  1  0
 12 13  1  0
 13 14  1  0
 14 15  1  0
 15 16  2  0
 15 17  1  0
 17 18  1  0
 18 19  2  0
 19 20  1  0
 20 21  1  0
  8 22  2  0
 22  4  1  0
 21 17  2  0
  1 23  1  0
  1 24  1  0
  1 25  1  0
  2 26  1  0
  2 27  1  0
  5 28  1  0
  6 29  1  0
  7 30  1  0
  9 31  1  0
  9 32  1  0
 11 33  1  0
 11 34  1  0
 11 35  1  0
 12 36  1  0
 12 37  1  0
 13 38  1  0
 13 39  1  0
 14 40  1  0
 18 41  1  0
 19 42  1  0
 20 43  1  0
M  END
>  <Energy>  (1134) 
112.11278190454799

>  <compound_id>  (1134) 
25883

>  <target_id>  (1134) 
1

>  <reference_id>  (1134) 
127

>  <inspiration_ids>  (1134) 
[49, 127]

>  <energy_score>  (1134) 
11.84309924405602

>  <distance_score>  (1134) 
14.394110119577066

>  <path>  (1134) 
/opt/xchem-fragalysis-2/maxwin/BulkDock/SCRATCH/511024/C25883-P127/C25883-P127.minimised.mol

>  <scratch_subdir>  (1134) 
/opt/xchem-fragalysis-2/maxwin/BulkDock/SCRATCH/511024/C25883-P127

>  <fragmenstein_runtime>  (1134) 
54.835262060165405

>  <fragmenstein_outcome>  (1134) 
too moved

>  <fragmenstein_mode>  (1134) 
expansion

>  <fragmenstein_error>  (1134) 


$$$$
C5300-P49
     RDKit          3D

 44 45  0  0  0  0  0  0  0  0999 V2000
   -7.5583   -7.6603   15.0233 C   0  0  0  0  0  0  0  0  0  0  0  0
   -6.1604   -7.9365   14.5153 C   0  0  0  0  0  0  0  0  0  0  0  0
   -5.1855   -6.8662   14.6012 N   0  0  0  0  0  0  0  0  0  0  0  0
   -4.3151   -6.9904   15.7222 C   0  0  0  0  0  0  0  0  0  0  0  0
   -3.2758   -7.6375   15.5263 O   0  0  0  0  0  0  0  0  0  0  0  0
   -4.5199   -6.5589   17.1603 C   0  0  0  0  0  0  0  0  0  0  0  0
   -3.6532   -7.1550   18.1248 C   0  0  0  0  0  0  0  0  0  0  0  0
   -3.8974   -7.0380   19.4925 C   0  0  0  0  0  0  0  0  0  0  0  0
   -4.9622   -6.3849   19.9831 N   0  0  0  0  0  0  0  0  0  0  0  0
   -5.7653   -5.7838   19.0677 C   0  0  0  0  0  0  0  0  0  0  0  0
   -5.5961   -5.8468   17.6699 C   0  0  0  0  0  0  0  0  0  0  0  0
   -5.1210   -5.7164   13.5496 C   0  0  0  0  0  0  0  0  0  0  0  0
   -4.0637   -6.3520   12.5652 C   0  0  0  0  0  0  0  0  0  0  0  0
   -6.5967   -5.0942   12.6274 C   0  0  0  0  0  0  0  0  0  0  0  0
   -7.3915   -3.6498   11.6667 N   0  0  0  0  0  0  0  0  0  0  0  0
   -8.5573   -3.4968   11.1886 C   0  0  0  0  0  0  0  0  0  0  0  0
   -9.4932   -4.1744   11.2758 O   0  0  0  0  0  0  0  0  0  0  0  0
   -8.5629   -1.7617    9.9388 C   0  0  0  0  0  0  0  0  0  0  0  0
   -9.3177   -1.8044    8.1002 C   0  0  0  0  0  0  0  0  0  0  0  0
  -10.5112   -1.3153    7.3872 C   0  0  0  0  0  0  0  0  0  0  0  0
  -10.5307   -1.7385    6.0534 C   0  0  0  0  0  0  0  0  0  0  0  0
   -9.3762   -2.2878    5.7596 N   0  0  0  0  0  0  0  0  0  0  0  0
   -8.6351   -1.9797    6.8267 N   0  0  0  0  0  0  0  0  0  0  0  0
   -7.5609   -7.2129   16.0175 H   0  0  0  0  0  0  0  0  0  0  0  0
   -8.1421   -7.0260   14.3747 H   0  0  0  0  0  0  0  0  0  0  0  0
   -8.1221   -8.5944   15.0454 H   0  0  0  0  0  0  0  0  0  0  0  0
   -5.7645   -8.7605   15.1111 H   0  0  0  0  0  0  0  0  0  0  0  0
   -6.1249   -8.3663   13.5143 H   0  0  0  0  0  0  0  0  0  0  0  0
   -2.7993   -7.7488   17.8026 H   0  0  0  0  0  0  0  0  0  0  0  0
   -3.2369   -7.4946   20.2231 H   0  0  0  0  0  0  0  0  0  0  0  0
   -6.6136   -5.2516   19.4953 H   0  0  0  0  0  0  0  0  0  0  0  0
   -6.3262   -5.3871   17.0150 H   0  0  0  0  0  0  0  0  0  0  0  0
   -4.6254   -4.8763   14.0579 H   0  0  0  0  0  0  0  0  0  0  0  0
   -3.1593   -6.6381   13.1151 H   0  0  0  0  0  0  0  0  0  0  0  0
   -3.7098   -5.7212   11.7503 H   0  0  0  0  0  0  0  0  0  0  0  0
   -4.4617   -7.2659   12.1133 H   0  0  0  0  0  0  0  0  0  0  0  0
   -6.1132   -5.4376   11.7296 H   0  0  0  0  0  0  0  0  0  0  0  0
   -6.4343   -4.4233   13.4477 H   0  0  0  0  0  0  0  0  0  0  0  0
   -6.9140   -2.8914   11.4824 H   0  0  0  0  0  0  0  0  0  0  0  0
   -8.5488   -0.7583   10.3676 H   0  0  0  0  0  0  0  0  0  0  0  0
   -7.7348   -1.6971    9.2500 H   0  0  0  0  0  0  0  0  0  0  0  0
  -11.3571   -0.7312    7.7213 H   0  0  0  0  0  0  0  0  0  0  0  0
  -11.3028   -1.6406    5.3018 H   0  0  0  0  0  0  0  0  0  0  0  0
   -7.6372   -1.9432    6.6358 H   0  0  0  0  0  0  0  0  0  0  0  0
  1  2  1  0
  2  3  1  0
  3  4  1  0
  4  5  2  0
  4  6  1  0
  6  7  2  0
  7  8  1  0
  8  9  2  0
  9 10  1  0
 10 11  2  0
  3 12  1  0
 12 13  1  0
 12 14  1  0
 14 15  1  0
 15 16  1  0
 16 17  2  0
 16 18  1  0
 18 19  1  0
 19 20  2  0
 20 21  1  0
 21 22  2  0
 22 23  1  0
 11  6  1  0
 23 19  1  0
  1 24  1  0
  1 25  1  0
  1 26  1  0
  2 27  1  0
  2 28  1  0
  7 29  1  0
  8 30  1  0
 10 31  1  0
 11 32  1  0
 12 33  1  0
 13 34  1  0
 13 35  1  0
 13 36  1  0
 14 37  1  0
 14 38  1  0
 15 39  1  0
 18 40  1  0
 18 41  1  0
 20 42  1  0
 21 43  1  0
 23 44  1  0
M  END
>  <Energy>  (1135) 
427.14373687212901

>  <compound_id>  (1135) 
5300

>  <target_id>  (1135) 
1

>  <reference_id>  (1135) 
49

>  <inspiration_ids>  (1135) 
[49, 127]

>  <energy_score>  (1135) 
343.24428870889994

>  <distance_score>  (1135) 
15.282084873474851

>  <path>  (1135) 
/opt/xchem-fragalysis-2/maxwin/BulkDock/SCRATCH/511024/C5300-P49/C5300-P49.minimised.mol

>  <scratch_subdir>  (1135) 
/opt/xchem-fragalysis-2/maxwin/BulkDock/SCRATCH/511024/C5300-P49

>  <fragmenstein_runtime>  (1135) 
35.290696144104004

>  <fragmenstein_outcome>  (1135) 
too moved

>  <fragmenstein_mode>  (1135) 
expansion

>  <fragmenstein_error>  (1135) 


$$$$
C5300-P127
     RDKit          3D

 44 45  0  0  0  0  0  0  0  0999 V2000
  -14.9773  -11.6386   17.0043 C   0  0  0  0  0  0  0  0  0  0  0  0
  -13.6560  -10.3433   17.8681 C   0  0  0  0  0  0  0  0  0  0  0  0
  -13.1050  -11.4113   17.3519 N   0  0  0  0  0  0  0  0  0  0  0  0
  -11.7399  -12.1268   18.6107 C   0  0  0  0  0  0  0  0  0  0  0  0
  -10.6331  -11.6465   18.3484 O   0  0  0  0  0  0  0  0  0  0  0  0
  -11.8577  -13.4235   20.4794 C   0  0  0  0  0  0  0  0  0  0  0  0
  -12.8342  -15.1493   20.2203 C   0  0  0  0  0  0  0  0  0  0  0  0
  -13.6551  -16.1064   21.0634 C   0  0  0  0  0  0  0  0  0  0  0  0
  -13.4845  -16.2819   22.4153 N   0  0  0  0  0  0  0  0  0  0  0  0
  -12.5587  -15.4226   22.9712 C   0  0  0  0  0  0  0  0  0  0  0  0
  -11.6114  -14.0423   22.1374 C   0  0  0  0  0  0  0  0  0  0  0  0
  -14.3454   -9.8017   17.3098 C   0  0  0  0  0  0  0  0  0  0  0  0
  -15.9820   -9.6627   18.1086 C   0  0  0  0  0  0  0  0  0  0  0  0
  -14.7333   -9.3406   15.4691 C   0  0  0  0  0  0  0  0  0  0  0  0
  -13.6175   -8.4886   14.9414 N   0  0  0  0  0  0  0  0  0  0  0  0
  -13.3290   -6.9626   15.1264 C   0  0  0  0  0  0  0  0  0  0  0  0
  -13.9879   -6.1030   15.6579 O   0  0  0  0  0  0  0  0  0  0  0  0
  -11.9112   -6.6116   14.6220 C   0  0  0  0  0  0  0  0  0  0  0  0
  -10.6400   -5.6575   15.6756 C   0  0  0  0  0  0  0  0  0  0  0  0
  -10.4532   -5.2660   17.0097 C   0  0  0  0  0  0  0  0  0  0  0  0
   -9.2926   -4.4714   17.0242 C   0  0  0  0  0  0  0  0  0  0  0  0
   -8.7196   -4.3915   15.8303 N   0  0  0  0  0  0  0  0  0  0  0  0
   -9.5484   -5.0536   15.0232 N   0  0  0  0  0  0  0  0  0  0  0  0
  -14.6497  -11.9440   15.9872 H   0  0  0  0  0  0  0  0  0  0  0  0
  -15.9557  -11.2195   16.7178 H   0  0  0  0  0  0  0  0  0  0  0  0
  -15.2674  -12.5307   17.5788 H   0  0  0  0  0  0  0  0  0  0  0  0
  -14.3039  -10.5247   18.8574 H   0  0  0  0  0  0  0  0  0  0  0  0
  -12.6905  -10.1527   18.3506 H   0  0  0  0  0  0  0  0  0  0  0  0
  -12.9859  -15.5443   19.2004 H   0  0  0  0  0  0  0  0  0  0  0  0
  -14.4170  -16.7061   20.5510 H   0  0  0  0  0  0  0  0  0  0  0  0
  -12.7810  -15.5142   24.0534 H   0  0  0  0  0  0  0  0  0  0  0  0
  -11.7452  -15.1766   21.9145 H   0  0  0  0  0  0  0  0  0  0  0  0
  -14.2056   -8.7198   17.7169 H   0  0  0  0  0  0  0  0  0  0  0  0
  -16.7158   -9.3469   17.3609 H   0  0  0  0  0  0  0  0  0  0  0  0
  -16.3097  -10.5635   18.6429 H   0  0  0  0  0  0  0  0  0  0  0  0
  -15.9025   -8.8619   18.8569 H   0  0  0  0  0  0  0  0  0  0  0  0
  -15.6455   -8.7409   15.4940 H   0  0  0  0  0  0  0  0  0  0  0  0
  -14.8146  -10.2379   14.8579 H   0  0  0  0  0  0  0  0  0  0  0  0
  -12.8892   -8.9032   14.3725 H   0  0  0  0  0  0  0  0  0  0  0  0
  -12.0165   -6.1878   13.6362 H   0  0  0  0  0  0  0  0  0  0  0  0
  -11.4781   -7.5862   14.5313 H   0  0  0  0  0  0  0  0  0  0  0  0
  -11.0613   -5.4953   17.8725 H   0  0  0  0  0  0  0  0  0  0  0  0
   -8.8268   -3.9715   17.8634 H   0  0  0  0  0  0  0  0  0  0  0  0
   -9.3936   -4.9698   14.0269 H   0  0  0  0  0  0  0  0  0  0  0  0
  1  2  1  0
  2  3  1  0
  3  4  1  0
  4  5  2  0
  4  6  1  0
  6  7  2  0
  7  8  1  0
  8  9  2  0
  9 10  1  0
 10 11  2  0
  3 12  1  0
 12 13  1  0
 12 14  1  0
 14 15  1  0
 15 16  1  0
 16 17  2  0
 16 18  1  0
 18 19  1  0
 19 20  2  0
 20 21  1  0
 21 22  2  0
 22 23  1  0
 11  6  1  0
 23 19  1  0
  1 24  1  0
  1 25  1  0
  1 26  1  0
  2 27  1  0
  2 28  1  0
  7 29  1  0
  8 30  1  0
 10 31  1  0
 11 32  1  0
 12 33  1  0
 13 34  1  0
 13 35  1  0
 13 36  1  0
 14 37  1  0
 14 38  1  0
 15 39  1  0
 18 40  1  0
 18 41  1  0
 20 42  1  0
 21 43  1  0
 23 44  1  0
M  END
>  <Energy>  (1136) 
1672.0421299544726

>  <compound_id>  (1136) 
5300

>  <target_id>  (1136) 
1

>  <reference_id>  (1136) 
127

>  <inspiration_ids>  (1136) 
[49, 127]

>  <energy_score>  (1136) 
1588.1426817912384

>  <distance_score>  (1136) 
12.52238880316997

>  <path>  (1136) 
/opt/xchem-fragalysis-2/maxwin/BulkDock/SCRATCH/511024/C5300-P127/C5300-P127.minimised.mol

>  <scratch_subdir>  (1136) 
/opt/xchem-fragalysis-2/maxwin/BulkDock/SCRATCH/511024/C5300-P127

>  <fragmenstein_runtime>  (1136) 
30.63318109512329

>  <fragmenstein_outcome>  (1136) 
too moved

>  <fragmenstein_mode>  (1136) 
expansion

>  <fragmenstein_error>  (1136) 


$$$$
C25892-P49
     RDKit          3D

 50 51  0  0  0  0  0  0  0  0999 V2000
   -5.1179  -14.1613   22.4806 C   0  0  0  0  0  0  0  0  0  0  0  0
   -6.5729  -12.9143   22.1502 C   0  0  0  0  0  0  0  0  0  0  0  0
   -7.4093  -13.7341   23.6099 C   0  0  0  0  0  0  0  0  0  0  0  0
   -7.3802  -12.5355   24.6588 N   0  0  0  0  0  0  0  0  0  0  0  0
   -7.2235  -11.1343   23.8559 C   0  0  0  0  0  0  0  0  0  0  0  0
   -7.4200  -10.8152   22.1891 C   0  0  0  0  0  0  0  0  0  0  0  0
   -7.2472  -11.6049   20.9128 C   0  0  0  0  0  0  0  0  0  0  0  0
   -7.7827  -10.7568   18.9315 C   0  0  0  0  0  0  0  0  0  0  0  0
   -8.5370   -8.8935   17.6770 C   0  0  0  0  0  0  0  0  0  0  0  0
   -9.6427   -8.3364   17.7890 O   0  0  0  0  0  0  0  0  0  0  0  0
   -7.2925   -7.8287   16.3011 N   0  0  0  0  0  0  0  0  0  0  0  0
   -7.5036   -5.9245   15.2248 C   0  0  0  0  0  0  0  0  0  0  0  0
   -6.9669   -4.1024   13.8400 C   0  0  0  0  0  0  0  0  0  0  0  0
   -8.4358   -2.7693   12.4948 N   0  0  0  0  0  0  0  0  0  0  0  0
   -8.0095   -3.7905   11.4614 C   0  0  0  0  0  0  0  0  0  0  0  0
   -8.3781   -0.8829   11.6774 C   0  0  0  0  0  0  0  0  0  0  0  0
   -7.4010   -0.2269   11.7587 O   0  0  0  0  0  0  0  0  0  0  0  0
   -9.9280    0.2440   10.5989 C   0  0  0  0  0  0  0  0  0  0  0  0
  -10.7259    1.6074    9.4201 C   0  0  0  0  0  0  0  0  0  0  0  0
  -12.0109    1.7894    8.9135 C   0  0  0  0  0  0  0  0  0  0  0  0
  -12.7143    1.2982    9.9229 N   0  0  0  0  0  0  0  0  0  0  0  0
  -11.8955    0.6035   10.9268 N   0  0  0  0  0  0  0  0  0  0  0  0
   -7.4535   -8.3272   15.0020 C   0  0  0  0  0  0  0  0  0  0  0  0
   -8.6625   -7.8718   14.2315 C   0  0  0  0  0  0  0  0  0  0  0  0
   -5.8239   -8.4174   14.8403 C   0  0  0  0  0  0  0  0  0  0  0  0
   -5.3178  -14.8098   23.3598 H   0  0  0  0  0  0  0  0  0  0  0  0
   -4.1403  -13.6984   22.5265 H   0  0  0  0  0  0  0  0  0  0  0  0
   -4.7751  -15.0191   21.8567 H   0  0  0  0  0  0  0  0  0  0  0  0
   -7.1862  -14.7019   24.0676 H   0  0  0  0  0  0  0  0  0  0  0  0
   -7.4265  -10.2593   24.4158 H   0  0  0  0  0  0  0  0  0  0  0  0
   -8.0913   -9.9753   22.1348 H   0  0  0  0  0  0  0  0  0  0  0  0
   -6.5541  -11.2550   18.9759 H   0  0  0  0  0  0  0  0  0  0  0  0
   -8.2363  -10.7920   20.3711 H   0  0  0  0  0  0  0  0  0  0  0  0
   -8.0172   -5.4314   16.0608 H   0  0  0  0  0  0  0  0  0  0  0  0
   -6.4374   -5.8264   15.5112 H   0  0  0  0  0  0  0  0  0  0  0  0
   -6.4158   -4.7365   13.1101 H   0  0  0  0  0  0  0  0  0  0  0  0
   -6.3360   -3.9786   14.7097 H   0  0  0  0  0  0  0  0  0  0  0  0
   -9.0444   -3.9083   11.1910 H   0  0  0  0  0  0  0  0  0  0  0  0
   -7.0626   -4.2544   11.3611 H   0  0  0  0  0  0  0  0  0  0  0  0
   -8.2190   -4.8631   11.7549 H   0  0  0  0  0  0  0  0  0  0  0  0
  -10.3527    2.6396    9.6900 H   0  0  0  0  0  0  0  0  0  0  0  0
  -12.4275    2.5304    8.2465 H   0  0  0  0  0  0  0  0  0  0  0  0
  -13.7113    1.3706   10.1275 H   0  0  0  0  0  0  0  0  0  0  0  0
   -7.6568   -9.4009   15.0388 H   0  0  0  0  0  0  0  0  0  0  0  0
   -9.0512   -8.6593   13.5789 H   0  0  0  0  0  0  0  0  0  0  0  0
   -9.4007   -7.4826   14.9366 H   0  0  0  0  0  0  0  0  0  0  0  0
   -8.5690   -7.0152   13.6065 H   0  0  0  0  0  0  0  0  0  0  0  0
   -5.3246   -7.4764   14.6039 H   0  0  0  0  0  0  0  0  0  0  0  0
   -5.4831   -9.2878   14.2643 H   0  0  0  0  0  0  0  0  0  0  0  0
   -5.2639   -8.5552   15.7695 H   0  0  0  0  0  0  0  0  0  0  0  0
  1  2  1  0
  2  3  2  0
  3  4  1  0
  4  5  2  0
  5  6  1  0
  6  7  2  0
  7  8  1  0
  8  9  1  0
  9 10  2  0
  9 11  1  0
 11 12  1  0
 12 13  1  0
 13 14  1  0
 14 15  1  0
 14 16  1  0
 16 17  2  0
 16 18  1  0
 18 19  1  0
 19 20  2  0
 20 21  1  0
 21 22  1  0
 11 23  1  0
 23 24  1  0
 23 25  1  0
  7  2  1  0
 22 18  2  0
  1 26  1  0
  1 27  1  0
  1 28  1  0
  3 29  1  0
  5 30  1  0
  6 31  1  0
  8 32  1  0
  8 33  1  0
 12 34  1  0
 12 35  1  0
 13 36  1  0
 13 37  1  0
 15 38  1  0
 15 39  1  0
 15 40  1  0
 19 41  1  0
 20 42  1  0
 21 43  1  0
 23 44  1  0
 24 45  1  0
 24 46  1  0
 24 47  1  0
 25 48  1  0
 25 49  1  0
 25 50  1  0
M  END
>  <Energy>  (1137) 
3259.7265110002118

>  <compound_id>  (1137) 
25892

>  <target_id>  (1137) 
1

>  <reference_id>  (1137) 
49

>  <inspiration_ids>  (1137) 
[49, 127]

>  <energy_score>  (1137) 
3129.4856534781234

>  <distance_score>  (1137) 
11.10402489705526

>  <path>  (1137) 
/opt/xchem-fragalysis-2/maxwin/BulkDock/SCRATCH/511024/C25892-P49/C25892-P49.minimised.mol

>  <scratch_subdir>  (1137) 
/opt/xchem-fragalysis-2/maxwin/BulkDock/SCRATCH/511024/C25892-P49

>  <fragmenstein_runtime>  (1137) 
49.93106937408447

>  <fragmenstein_outcome>  (1137) 
too moved

>  <fragmenstein_mode>  (1137) 
expansion

>  <fragmenstein_error>  (1137) 


$$$$
C25892-P127
     RDKit          3D

 50 51  0  0  0  0  0  0  0  0999 V2000
   -6.5138  -14.9360   24.3451 C   0  0  0  0  0  0  0  0  0  0  0  0
   -6.2263  -13.4563   23.3589 C   0  0  0  0  0  0  0  0  0  0  0  0
   -5.5324  -13.0223   24.5749 C   0  0  0  0  0  0  0  0  0  0  0  0
   -6.1270  -12.1431   25.2940 N   0  0  0  0  0  0  0  0  0  0  0  0
   -7.0899  -11.5153   24.5787 C   0  0  0  0  0  0  0  0  0  0  0  0
   -7.5108  -11.4898   23.0975 C   0  0  0  0  0  0  0  0  0  0  0  0
   -7.1307  -12.4085   22.1661 C   0  0  0  0  0  0  0  0  0  0  0  0
   -7.0638  -11.7474   20.1708 C   0  0  0  0  0  0  0  0  0  0  0  0
   -8.2434  -10.0455   19.3124 C   0  0  0  0  0  0  0  0  0  0  0  0
   -9.3527  -10.4096   19.0666 O   0  0  0  0  0  0  0  0  0  0  0  0
   -8.1123   -8.1619   19.0578 N   0  0  0  0  0  0  0  0  0  0  0  0
   -9.1078   -7.0989   18.5181 C   0  0  0  0  0  0  0  0  0  0  0  0
   -8.9092   -5.5214   17.5124 C   0  0  0  0  0  0  0  0  0  0  0  0
   -7.8200   -4.4691   17.5399 N   0  0  0  0  0  0  0  0  0  0  0  0
   -7.7578   -4.7997   16.0868 C   0  0  0  0  0  0  0  0  0  0  0  0
   -7.9005   -3.0481   17.7190 C   0  0  0  0  0  0  0  0  0  0  0  0
   -8.8565   -2.3268   17.8029 O   0  0  0  0  0  0  0  0  0  0  0  0
   -6.5806   -2.3947   17.6940 C   0  0  0  0  0  0  0  0  0  0  0  0
   -5.3256   -2.8751   18.1135 C   0  0  0  0  0  0  0  0  0  0  0  0
   -4.4523   -1.8406   17.8811 C   0  0  0  0  0  0  0  0  0  0  0  0
   -5.1789   -0.8495   17.2955 N   0  0  0  0  0  0  0  0  0  0  0  0
   -6.4607   -1.1675   17.1494 N   0  0  0  0  0  0  0  0  0  0  0  0
   -8.3964   -6.6892   20.3263 C   0  0  0  0  0  0  0  0  0  0  0  0
   -7.1461   -5.5529   20.6908 C   0  0  0  0  0  0  0  0  0  0  0  0
   -9.2989   -5.2060   19.9546 C   0  0  0  0  0  0  0  0  0  0  0  0
   -7.4149  -15.4990   24.1776 H   0  0  0  0  0  0  0  0  0  0  0  0
   -6.6448  -14.6855   25.4144 H   0  0  0  0  0  0  0  0  0  0  0  0
   -5.6052  -15.5513   24.2664 H   0  0  0  0  0  0  0  0  0  0  0  0
   -4.7492  -13.5922   25.0667 H   0  0  0  0  0  0  0  0  0  0  0  0
   -7.6793  -10.8787   25.2054 H   0  0  0  0  0  0  0  0  0  0  0  0
   -8.3263  -10.8024   22.9196 H   0  0  0  0  0  0  0  0  0  0  0  0
   -7.3388  -12.5961   19.4704 H   0  0  0  0  0  0  0  0  0  0  0  0
   -5.8931  -11.8107   20.2427 H   0  0  0  0  0  0  0  0  0  0  0  0
  -10.1045   -7.1931   18.0673 H   0  0  0  0  0  0  0  0  0  0  0  0
   -9.8111   -7.2290   19.3102 H   0  0  0  0  0  0  0  0  0  0  0  0
   -9.7547   -4.9060   17.8617 H   0  0  0  0  0  0  0  0  0  0  0  0
   -9.5199   -5.6040   16.5787 H   0  0  0  0  0  0  0  0  0  0  0  0
   -7.5567   -5.8542   15.8685 H   0  0  0  0  0  0  0  0  0  0  0  0
   -8.5703   -4.3517   15.4932 H   0  0  0  0  0  0  0  0  0  0  0  0
   -6.8637   -4.2850   15.7046 H   0  0  0  0  0  0  0  0  0  0  0  0
   -5.0959   -3.8314   18.5585 H   0  0  0  0  0  0  0  0  0  0  0  0
   -3.3922   -1.7309   18.0588 H   0  0  0  0  0  0  0  0  0  0  0  0
   -4.8568    0.0491   16.9480 H   0  0  0  0  0  0  0  0  0  0  0  0
   -8.3871   -7.0866   21.3335 H   0  0  0  0  0  0  0  0  0  0  0  0
   -6.5116   -5.3299   19.8393 H   0  0  0  0  0  0  0  0  0  0  0  0
   -7.5057   -4.5674   21.0192 H   0  0  0  0  0  0  0  0  0  0  0  0
   -6.6292   -5.7836   21.6268 H   0  0  0  0  0  0  0  0  0  0  0  0
  -10.2855   -5.2768   19.5359 H   0  0  0  0  0  0  0  0  0  0  0  0
   -9.5295   -4.4498   20.6900 H   0  0  0  0  0  0  0  0  0  0  0  0
   -8.6618   -4.5204   19.4330 H   0  0  0  0  0  0  0  0  0  0  0  0
  1  2  1  0
  2  3  2  0
  3  4  1  0
  4  5  2  0
  5  6  1  0
  6  7  2  0
  7  8  1  0
  8  9  1  0
  9 10  2  0
  9 11  1  0
 11 12  1  0
 12 13  1  0
 13 14  1  0
 14 15  1  0
 14 16  1  0
 16 17  2  0
 16 18  1  0
 18 19  1  0
 19 20  2  0
 20 21  1  0
 21 22  1  0
 11 23  1  0
 23 24  1  0
 23 25  1  0
  7  2  1  0
 22 18  2  0
  1 26  1  0
  1 27  1  0
  1 28  1  0
  3 29  1  0
  5 30  1  0
  6 31  1  0
  8 32  1  0
  8 33  1  0
 12 34  1  0
 12 35  1  0
 13 36  1  0
 13 37  1  0
 15 38  1  0
 15 39  1  0
 15 40  1  0
 19 41  1  0
 20 42  1  0
 21 43  1  0
 23 44  1  0
 24 45  1  0
 24 46  1  0
 24 47  1  0
 25 48  1  0
 25 49  1  0
 25 50  1  0
M  END
>  <Energy>  (1138) 
1150.9104027574213

>  <compound_id>  (1138) 
25892

>  <target_id>  (1138) 
1

>  <reference_id>  (1138) 
127

>  <inspiration_ids>  (1138) 
[49, 127]

>  <energy_score>  (1138) 
1020.6695452353894

>  <distance_score>  (1138) 
13.443324543636566

>  <path>  (1138) 
/opt/xchem-fragalysis-2/maxwin/BulkDock/SCRATCH/511024/C25892-P127/C25892-P127.minimised.mol

>  <scratch_subdir>  (1138) 
/opt/xchem-fragalysis-2/maxwin/BulkDock/SCRATCH/511024/C25892-P127

>  <fragmenstein_runtime>  (1138) 
48.045196533203125

>  <fragmenstein_outcome>  (1138) 
too moved

>  <fragmenstein_mode>  (1138) 
expansion

>  <fragmenstein_error>  (1138) 


$$$$
C25896-P49
     RDKit          3D

 41 42  0  0  0  0  0  0  0  0999 V2000
  -19.9608   -8.0779   11.4944 C   0  0  0  0  0  0  0  0  0  0  0  0
  -20.7162   -7.0826   12.4226 C   0  0  0  0  0  0  0  0  0  0  0  0
  -19.8624   -6.1001   13.2537 N   0  0  0  0  0  0  0  0  0  0  0  0
  -19.6606   -7.3347   14.1040 C   0  0  0  0  0  0  0  0  0  0  0  0
  -18.4273   -7.0633   15.0250 C   0  0  0  0  0  0  0  0  0  0  0  0
  -17.1170   -7.0162   14.2172 C   0  0  0  0  0  0  0  0  0  0  0  0
  -18.3704   -8.0503   16.0954 N   0  0  0  0  0  0  0  0  0  0  0  0
  -19.2059   -8.2420   17.2375 C   0  0  0  0  0  0  0  0  0  0  0  0
  -20.2141   -7.6917   17.5687 O   0  0  0  0  0  0  0  0  0  0  0  0
  -18.6234   -9.2478   18.2002 C   0  0  0  0  0  0  0  0  0  0  0  0
  -18.9700   -9.1526   19.5433 C   0  0  0  0  0  0  0  0  0  0  0  0
  -18.1888   -9.8291   20.4547 C   0  0  0  0  0  0  0  0  0  0  0  0
  -17.1564  -10.6422   19.9899 C   0  0  0  0  0  0  0  0  0  0  0  0
  -16.3947  -11.3057   20.8639 F   0  0  0  0  0  0  0  0  0  0  0  0
  -16.9617  -10.7942   18.6440 C   0  0  0  0  0  0  0  0  0  0  0  0
  -17.6335  -10.0653   17.7307 N   0  0  0  0  0  0  0  0  0  0  0  0
  -20.6063   -4.8930   13.5126 C   0  0  0  0  0  0  0  0  0  0  0  0
  -21.3267   -4.6026   14.4306 O   0  0  0  0  0  0  0  0  0  0  0  0
  -20.3455   -3.7942   12.5116 C   0  0  0  0  0  0  0  0  0  0  0  0
  -21.1149   -2.6025   12.3624 C   0  0  0  0  0  0  0  0  0  0  0  0
  -20.4030   -1.7837   11.5208 C   0  0  0  0  0  0  0  0  0  0  0  0
  -19.2667   -2.4633   11.2249 N   0  0  0  0  0  0  0  0  0  0  0  0
  -19.2240   -3.6990   11.7623 N   0  0  0  0  0  0  0  0  0  0  0  0
  -20.1405   -9.1068   11.8293 H   0  0  0  0  0  0  0  0  0  0  0  0
  -18.8778   -7.9225   11.4730 H   0  0  0  0  0  0  0  0  0  0  0  0
  -20.3622   -8.0317   10.4763 H   0  0  0  0  0  0  0  0  0  0  0  0
  -21.5502   -7.5478   12.9781 H   0  0  0  0  0  0  0  0  0  0  0  0
  -21.2729   -6.4283   11.7329 H   0  0  0  0  0  0  0  0  0  0  0  0
  -20.5319   -7.4514   14.7678 H   0  0  0  0  0  0  0  0  0  0  0  0
  -19.4046   -8.2941   13.6412 H   0  0  0  0  0  0  0  0  0  0  0  0
  -18.5679   -6.0934   15.5191 H   0  0  0  0  0  0  0  0  0  0  0  0
  -16.2749   -6.7799   14.8747 H   0  0  0  0  0  0  0  0  0  0  0  0
  -16.9130   -7.9858   13.7505 H   0  0  0  0  0  0  0  0  0  0  0  0
  -17.1733   -6.2692   13.4244 H   0  0  0  0  0  0  0  0  0  0  0  0
  -17.5468   -8.6441   16.1843 H   0  0  0  0  0  0  0  0  0  0  0  0
  -19.7512   -8.4739   19.8724 H   0  0  0  0  0  0  0  0  0  0  0  0
  -18.3730   -9.6818   21.5126 H   0  0  0  0  0  0  0  0  0  0  0  0
  -16.2259  -11.4782   18.2507 H   0  0  0  0  0  0  0  0  0  0  0  0
  -22.0429   -2.3680   12.8663 H   0  0  0  0  0  0  0  0  0  0  0  0
  -20.5824   -0.7823   11.1564 H   0  0  0  0  0  0  0  0  0  0  0  0
  -18.4784   -2.1450   10.6685 H   0  0  0  0  0  0  0  0  0  0  0  0
  1  2  1  0
  2  3  1  0
  3  4  1  0
  4  5  1  0
  5  6  1  0
  5  7  1  0
  7  8  1  0
  8  9  2  0
  8 10  1  0
 10 11  2  0
 11 12  1  0
 12 13  2  0
 13 14  1  0
 13 15  1  0
 15 16  2  0
  3 17  1  0
 17 18  2  0
 17 19  1  0
 19 20  1  0
 20 21  2  0
 21 22  1  0
 22 23  1  0
 16 10  1  0
 23 19  2  0
  1 24  1  0
  1 25  1  0
  1 26  1  0
  2 27  1  0
  2 28  1  0
  4 29  1  0
  4 30  1  0
  5 31  1  0
  6 32  1  0
  6 33  1  0
  6 34  1  0
  7 35  1  0
 11 36  1  0
 12 37  1  0
 15 38  1  0
 20 39  1  0
 21 40  1  0
 22 41  1  0
M  END
>  <Energy>  (1139) 
185.66410203158753

>  <compound_id>  (1139) 
25896

>  <target_id>  (1139) 
1

>  <reference_id>  (1139) 
49

>  <inspiration_ids>  (1139) 
[49, 127]

>  <energy_score>  (1139) 
56.91838533462976

>  <distance_score>  (1139) 
14.795310526471026

>  <path>  (1139) 
/opt/xchem-fragalysis-2/maxwin/BulkDock/SCRATCH/511024/C25896-P49/C25896-P49.minimised.mol

>  <scratch_subdir>  (1139) 
/opt/xchem-fragalysis-2/maxwin/BulkDock/SCRATCH/511024/C25896-P49

>  <fragmenstein_runtime>  (1139) 
66.84918546676636

>  <fragmenstein_outcome>  (1139) 
too moved

>  <fragmenstein_mode>  (1139) 
expansion

>  <fragmenstein_error>  (1139) 


$$$$
C25896-P127
     RDKit          3D

 41 42  0  0  0  0  0  0  0  0999 V2000
  -14.9403  -13.1391   10.5333 C   0  0  0  0  0  0  0  0  0  0  0  0
  -15.0181  -14.1106   11.7564 C   0  0  0  0  0  0  0  0  0  0  0  0
  -15.0989  -13.3650   13.0908 N   0  0  0  0  0  0  0  0  0  0  0  0
  -15.1149  -14.8346   13.6549 C   0  0  0  0  0  0  0  0  0  0  0  0
  -13.9441  -15.9037   13.8160 C   0  0  0  0  0  0  0  0  0  0  0  0
  -12.5490  -15.2555   13.6863 C   0  0  0  0  0  0  0  0  0  0  0  0
  -14.0433  -16.7158   15.1249 N   0  0  0  0  0  0  0  0  0  0  0  0
  -13.3313  -17.9185   15.5645 C   0  0  0  0  0  0  0  0  0  0  0  0
  -12.5498  -18.6214   14.9815 O   0  0  0  0  0  0  0  0  0  0  0  0
  -13.5050  -18.3431   17.0980 C   0  0  0  0  0  0  0  0  0  0  0  0
  -12.7054  -19.3909   17.6156 C   0  0  0  0  0  0  0  0  0  0  0  0
  -12.6540  -19.6819   18.9990 C   0  0  0  0  0  0  0  0  0  0  0  0
  -13.4053  -18.9224   19.8708 C   0  0  0  0  0  0  0  0  0  0  0  0
  -13.3401  -19.1433   21.1999 F   0  0  0  0  0  0  0  0  0  0  0  0
  -14.1905  -17.9183   19.3069 C   0  0  0  0  0  0  0  0  0  0  0  0
  -14.2605  -17.5964   17.9537 N   0  0  0  0  0  0  0  0  0  0  0  0
  -14.0772  -12.3406   13.1513 C   0  0  0  0  0  0  0  0  0  0  0  0
  -12.9509  -12.3859   13.5676 O   0  0  0  0  0  0  0  0  0  0  0  0
  -14.6257  -11.0035   12.6869 C   0  0  0  0  0  0  0  0  0  0  0  0
  -15.9961  -10.6007   12.5886 C   0  0  0  0  0  0  0  0  0  0  0  0
  -15.9900   -9.2982   12.1577 C   0  0  0  0  0  0  0  0  0  0  0  0
  -14.6784   -8.9698   12.0368 N   0  0  0  0  0  0  0  0  0  0  0  0
  -13.8321   -9.9715   12.3165 N   0  0  0  0  0  0  0  0  0  0  0  0
  -15.7994  -12.4641   10.5088 H   0  0  0  0  0  0  0  0  0  0  0  0
  -14.9616  -13.7291    9.6101 H   0  0  0  0  0  0  0  0  0  0  0  0
  -14.0110  -12.5632   10.5222 H   0  0  0  0  0  0  0  0  0  0  0  0
  -14.1223  -14.7263   11.6406 H   0  0  0  0  0  0  0  0  0  0  0  0
  -15.9343  -14.6915   11.5712 H   0  0  0  0  0  0  0  0  0  0  0  0
  -16.0709  -15.3357   13.4260 H   0  0  0  0  0  0  0  0  0  0  0  0
  -15.2801  -14.5748   14.7093 H   0  0  0  0  0  0  0  0  0  0  0  0
  -14.0360  -16.6514   13.0193 H   0  0  0  0  0  0  0  0  0  0  0  0
  -12.3654  -14.8305   12.6979 H   0  0  0  0  0  0  0  0  0  0  0  0
  -11.7690  -16.0061   13.8561 H   0  0  0  0  0  0  0  0  0  0  0  0
  -12.4146  -14.4781   14.4348 H   0  0  0  0  0  0  0  0  0  0  0  0
  -14.5634  -16.3306   15.9125 H   0  0  0  0  0  0  0  0  0  0  0  0
  -12.0786  -19.9644   16.9343 H   0  0  0  0  0  0  0  0  0  0  0  0
  -12.0168  -20.4784   19.3693 H   0  0  0  0  0  0  0  0  0  0  0  0
  -14.8103  -17.2960   19.9479 H   0  0  0  0  0  0  0  0  0  0  0  0
  -16.8610  -11.2020   12.8306 H   0  0  0  0  0  0  0  0  0  0  0  0
  -16.7781   -8.5866   11.9687 H   0  0  0  0  0  0  0  0  0  0  0  0
  -14.2898   -8.0472   11.8519 H   0  0  0  0  0  0  0  0  0  0  0  0
  1  2  1  0
  2  3  1  0
  3  4  1  0
  4  5  1  0
  5  6  1  0
  5  7  1  0
  7  8  1  0
  8  9  2  0
  8 10  1  0
 10 11  2  0
 11 12  1  0
 12 13  2  0
 13 14  1  0
 13 15  1  0
 15 16  2  0
  3 17  1  0
 17 18  2  0
 17 19  1  0
 19 20  1  0
 20 21  2  0
 21 22  1  0
 22 23  1  0
 16 10  1  0
 23 19  2  0
  1 24  1  0
  1 25  1  0
  1 26  1  0
  2 27  1  0
  2 28  1  0
  4 29  1  0
  4 30  1  0
  5 31  1  0
  6 32  1  0
  6 33  1  0
  6 34  1  0
  7 35  1  0
 11 36  1  0
 12 37  1  0
 15 38  1  0
 20 39  1  0
 21 40  1  0
 22 41  1  0
M  END
>  <Energy>  (1140) 
208.87262702624008

>  <compound_id>  (1140) 
25896

>  <target_id>  (1140) 
1

>  <reference_id>  (1140) 
127

>  <inspiration_ids>  (1140) 
[49, 127]

>  <energy_score>  (1140) 
80.12691032928467

>  <distance_score>  (1140) 
14.398396738999866

>  <path>  (1140) 
/opt/xchem-fragalysis-2/maxwin/BulkDock/SCRATCH/511024/C25896-P127/C25896-P127.minimised.mol

>  <scratch_subdir>  (1140) 
/opt/xchem-fragalysis-2/maxwin/BulkDock/SCRATCH/511024/C25896-P127

>  <fragmenstein_runtime>  (1140) 
25.59984827041626

>  <fragmenstein_outcome>  (1140) 
too moved

>  <fragmenstein_mode>  (1140) 
expansion

>  <fragmenstein_error>  (1140) 


$$$$
C25899-P49
     RDKit          3D

 48 50  0  0  0  0  0  0  0  0999 V2000
  -17.0369   -6.8375   24.2085 C   0  0  0  0  0  0  0  0  0  0  0  0
  -15.6147   -6.4680   23.7978 C   0  0  0  0  0  0  0  0  0  0  0  0
  -14.3666   -7.2604   24.8198 C   0  0  0  0  0  0  0  0  0  0  0  0
  -14.4457   -8.0441   25.9897 N   0  0  0  0  0  0  0  0  0  0  0  0
  -13.4492   -7.2849   24.5692 C   0  0  0  0  0  0  0  0  0  0  0  0
  -12.8651   -5.6030   24.5214 C   0  0  0  0  0  0  0  0  0  0  0  0
  -13.0259   -4.9708   23.2032 N   0  0  0  0  0  0  0  0  0  0  0  0
  -12.7966   -5.4820   21.8761 C   0  0  0  0  0  0  0  0  0  0  0  0
  -12.4926   -6.5762   21.5067 O   0  0  0  0  0  0  0  0  0  0  0  0
  -13.0217   -4.4411   20.7848 C   0  0  0  0  0  0  0  0  0  0  0  0
  -13.9142   -3.3268   20.7647 C   0  0  0  0  0  0  0  0  0  0  0  0
  -13.7827   -2.7494   19.5231 C   0  0  0  0  0  0  0  0  0  0  0  0
  -12.8494   -3.4852   18.8668 N   0  0  0  0  0  0  0  0  0  0  0  0
  -12.3767   -4.5127   19.5913 N   0  0  0  0  0  0  0  0  0  0  0  0
  -13.5371   -8.7611   26.8026 C   0  0  0  0  0  0  0  0  0  0  0  0
  -12.9412   -8.2906   27.7629 O   0  0  0  0  0  0  0  0  0  0  0  0
  -13.3559  -10.2701   26.5550 C   0  0  0  0  0  0  0  0  0  0  0  0
  -14.4247  -11.0234   26.0724 C   0  0  0  0  0  0  0  0  0  0  0  0
  -14.3445  -12.4132   26.0902 C   0  0  0  0  0  0  0  0  0  0  0  0
  -13.2848  -13.1142   26.5432 N   0  0  0  0  0  0  0  0  0  0  0  0
  -12.2338  -12.4200   27.0432 C   0  0  0  0  0  0  0  0  0  0  0  0
  -11.0332  -13.2178   27.5347 C   0  0  0  0  0  0  0  0  0  0  0  0
  -10.9760  -13.6877   28.9649 C   0  0  0  0  0  0  0  0  0  0  0  0
  -11.1599  -14.6934   27.8727 C   0  0  0  0  0  0  0  0  0  0  0  0
  -12.2595  -11.0030   27.0748 C   0  0  0  0  0  0  0  0  0  0  0  0
  -17.2255   -7.9067   24.0720 H   0  0  0  0  0  0  0  0  0  0  0  0
  -17.2175   -6.5861   25.2579 H   0  0  0  0  0  0  0  0  0  0  0  0
  -17.7585   -6.2880   23.5962 H   0  0  0  0  0  0  0  0  0  0  0  0
  -15.4214   -6.7410   22.7547 H   0  0  0  0  0  0  0  0  0  0  0  0
  -15.4914   -5.3816   23.8845 H   0  0  0  0  0  0  0  0  0  0  0  0
  -14.8198   -6.4584   25.5598 H   0  0  0  0  0  0  0  0  0  0  0  0
  -15.0644   -8.1422   24.4548 H   0  0  0  0  0  0  0  0  0  0  0  0
  -13.1590   -7.9334   23.6245 H   0  0  0  0  0  0  0  0  0  0  0  0
  -12.4418   -7.6278   25.0404 H   0  0  0  0  0  0  0  0  0  0  0  0
  -11.8048   -5.5994   24.7798 H   0  0  0  0  0  0  0  0  0  0  0  0
  -13.3888   -4.9871   25.2621 H   0  0  0  0  0  0  0  0  0  0  0  0
  -13.3487   -4.0136   23.1369 H   0  0  0  0  0  0  0  0  0  0  0  0
  -14.5948   -3.0079   21.5415 H   0  0  0  0  0  0  0  0  0  0  0  0
  -14.2659   -1.8984   19.0710 H   0  0  0  0  0  0  0  0  0  0  0  0
  -12.4801   -3.3462   17.9312 H   0  0  0  0  0  0  0  0  0  0  0  0
  -15.3363  -10.5444   25.7298 H   0  0  0  0  0  0  0  0  0  0  0  0
  -15.1722  -13.0175   25.7278 H   0  0  0  0  0  0  0  0  0  0  0  0
  -10.0851  -12.9247   27.0879 H   0  0  0  0  0  0  0  0  0  0  0  0
  -11.8260  -13.4703   29.6025 H   0  0  0  0  0  0  0  0  0  0  0  0
  -10.0163  -13.6463   29.4663 H   0  0  0  0  0  0  0  0  0  0  0  0
  -10.3249  -15.3378   27.6256 H   0  0  0  0  0  0  0  0  0  0  0  0
  -12.1333  -15.1629   27.7955 H   0  0  0  0  0  0  0  0  0  0  0  0
  -11.4282  -10.4663   27.5248 H   0  0  0  0  0  0  0  0  0  0  0  0
  1  2  1  0
  2  3  1  0
  3  4  1  0
  4  5  1  0
  5  6  1  0
  6  7  1  0
  7  8  1  0
  8  9  2  0
  8 10  1  0
 10 11  1  0
 11 12  2  0
 12 13  1  0
 13 14  1  0
  4 15  1  0
 15 16  2  0
 15 17  1  0
 17 18  2  0
 18 19  1  0
 19 20  2  0
 20 21  1  0
 21 22  1  0
 22 23  1  0
 23 24  1  0
 21 25  2  0
 14 10  2  0
 25 17  1  0
 24 22  1  0
  1 26  1  0
  1 27  1  0
  1 28  1  0
  2 29  1  0
  2 30  1  0
  3 31  1  0
  3 32  1  0
  5 33  1  0
  5 34  1  0
  6 35  1  0
  6 36  1  0
  7 37  1  0
 11 38  1  0
 12 39  1  0
 13 40  1  0
 18 41  1  0
 19 42  1  0
 22 43  1  0
 23 44  1  0
 23 45  1  0
 24 46  1  0
 24 47  1  0
 25 48  1  0
M  END
>  <Energy>  (1141) 
654.12386752599889

>  <compound_id>  (1141) 
25899

>  <target_id>  (1141) 
1

>  <reference_id>  (1141) 
49

>  <inspiration_ids>  (1141) 
[49, 127]

>  <energy_score>  (1141) 
559.3697484127274

>  <distance_score>  (1141) 
13.72444284864845

>  <path>  (1141) 
/opt/xchem-fragalysis-2/maxwin/BulkDock/SCRATCH/511024/C25899-P49/C25899-P49.minimised.mol

>  <scratch_subdir>  (1141) 
/opt/xchem-fragalysis-2/maxwin/BulkDock/SCRATCH/511024/C25899-P49

>  <fragmenstein_runtime>  (1141) 
69.21453285217285

>  <fragmenstein_outcome>  (1141) 
too moved

>  <fragmenstein_mode>  (1141) 
expansion

>  <fragmenstein_error>  (1141) 


$$$$
C25899-P127
     RDKit          3D

 48 50  0  0  0  0  0  0  0  0999 V2000
  -19.1093  -10.7031   18.7545 C   0  0  0  0  0  0  0  0  0  0  0  0
  -17.6711  -10.2153   18.8610 C   0  0  0  0  0  0  0  0  0  0  0  0
  -16.8881  -10.9980   19.9413 C   0  0  0  0  0  0  0  0  0  0  0  0
  -17.2518  -10.7394   21.3462 N   0  0  0  0  0  0  0  0  0  0  0  0
  -17.0594   -9.3782   21.8885 C   0  0  0  0  0  0  0  0  0  0  0  0
  -15.8916   -8.4969   21.3498 C   0  0  0  0  0  0  0  0  0  0  0  0
  -16.1111   -7.6532   20.1792 N   0  0  0  0  0  0  0  0  0  0  0  0
  -16.9226   -6.4849   20.0009 C   0  0  0  0  0  0  0  0  0  0  0  0
  -17.6902   -5.9472   20.7442 O   0  0  0  0  0  0  0  0  0  0  0  0
  -16.6790   -5.8277   18.6633 C   0  0  0  0  0  0  0  0  0  0  0  0
  -17.3620   -4.6802   18.1511 C   0  0  0  0  0  0  0  0  0  0  0  0
  -16.8024   -4.4133   16.9267 C   0  0  0  0  0  0  0  0  0  0  0  0
  -15.8359   -5.3527   16.7587 N   0  0  0  0  0  0  0  0  0  0  0  0
  -15.7293   -6.2215   17.7849 N   0  0  0  0  0  0  0  0  0  0  0  0
  -17.7791  -11.7783   22.1598 C   0  0  0  0  0  0  0  0  0  0  0  0
  -19.0023  -11.9464   22.1909 O   0  0  0  0  0  0  0  0  0  0  0  0
  -16.9715  -12.8193   22.9335 C   0  0  0  0  0  0  0  0  0  0  0  0
  -17.1430  -14.1474   22.5176 C   0  0  0  0  0  0  0  0  0  0  0  0
  -16.5977  -15.1924   23.2547 C   0  0  0  0  0  0  0  0  0  0  0  0
  -15.8942  -15.0249   24.3873 N   0  0  0  0  0  0  0  0  0  0  0  0
  -15.7550  -13.7616   24.8637 C   0  0  0  0  0  0  0  0  0  0  0  0
  -14.9750  -13.6121   26.1628 C   0  0  0  0  0  0  0  0  0  0  0  0
  -14.8584  -14.7752   27.1344 C   0  0  0  0  0  0  0  0  0  0  0  0
  -15.7032  -13.5951   27.4871 C   0  0  0  0  0  0  0  0  0  0  0  0
  -16.2921  -12.6431   24.1568 C   0  0  0  0  0  0  0  0  0  0  0  0
  -19.1466  -11.7736   18.5292 H   0  0  0  0  0  0  0  0  0  0  0  0
  -19.6557  -10.5273   19.6862 H   0  0  0  0  0  0  0  0  0  0  0  0
  -19.6300  -10.1698   17.9529 H   0  0  0  0  0  0  0  0  0  0  0  0
  -17.6924   -9.1465   19.0649 H   0  0  0  0  0  0  0  0  0  0  0  0
  -17.1761  -10.3590   17.8939 H   0  0  0  0  0  0  0  0  0  0  0  0
  -16.9927  -12.0725   19.7504 H   0  0  0  0  0  0  0  0  0  0  0  0
  -15.8332  -10.7428   19.8259 H   0  0  0  0  0  0  0  0  0  0  0  0
  -18.0084   -8.8528   21.7272 H   0  0  0  0  0  0  0  0  0  0  0  0
  -16.9497   -9.4888   22.9737 H   0  0  0  0  0  0  0  0  0  0  0  0
  -15.6489   -7.7826   22.1448 H   0  0  0  0  0  0  0  0  0  0  0  0
  -15.0043   -9.0984   21.1607 H   0  0  0  0  0  0  0  0  0  0  0  0
  -15.5128   -7.7715   19.3570 H   0  0  0  0  0  0  0  0  0  0  0  0
  -18.1559   -4.1314   18.6399 H   0  0  0  0  0  0  0  0  0  0  0  0
  -16.9862   -3.6362   16.1978 H   0  0  0  0  0  0  0  0  0  0  0  0
  -15.1928   -5.4467   15.9813 H   0  0  0  0  0  0  0  0  0  0  0  0
  -17.7311  -14.3681   21.6302 H   0  0  0  0  0  0  0  0  0  0  0  0
  -16.7296  -16.2228   22.9365 H   0  0  0  0  0  0  0  0  0  0  0  0
  -14.0915  -12.9822   26.0882 H   0  0  0  0  0  0  0  0  0  0  0  0
  -15.3854  -15.6998   26.9285 H   0  0  0  0  0  0  0  0  0  0  0  0
  -13.9242  -14.9033   27.6676 H   0  0  0  0  0  0  0  0  0  0  0  0
  -15.3414  -12.9225   28.2560 H   0  0  0  0  0  0  0  0  0  0  0  0
  -16.7794  -13.7299   27.4878 H   0  0  0  0  0  0  0  0  0  0  0  0
  -16.2010  -11.6502   24.5846 H   0  0  0  0  0  0  0  0  0  0  0  0
  1  2  1  0
  2  3  1  0
  3  4  1  0
  4  5  1  0
  5  6  1  0
  6  7  1  0
  7  8  1  0
  8  9  2  0
  8 10  1  0
 10 11  1  0
 11 12  2  0
 12 13  1  0
 13 14  1  0
  4 15  1  0
 15 16  2  0
 15 17  1  0
 17 18  2  0
 18 19  1  0
 19 20  2  0
 20 21  1  0
 21 22  1  0
 22 23  1  0
 23 24  1  0
 21 25  2  0
 14 10  2  0
 25 17  1  0
 24 22  1  0
  1 26  1  0
  1 27  1  0
  1 28  1  0
  2 29  1  0
  2 30  1  0
  3 31  1  0
  3 32  1  0
  5 33  1  0
  5 34  1  0
  6 35  1  0
  6 36  1  0
  7 37  1  0
 11 38  1  0
 12 39  1  0
 13 40  1  0
 18 41  1  0
 19 42  1  0
 22 43  1  0
 23 44  1  0
 23 45  1  0
 24 46  1  0
 24 47  1  0
 25 48  1  0
M  END
>  <Energy>  (1142) 
84.741550122281637

>  <compound_id>  (1142) 
25899

>  <target_id>  (1142) 
1

>  <reference_id>  (1142) 
127

>  <inspiration_ids>  (1142) 
[49, 127]

>  <energy_score>  (1142) 
-10.012568990987916

>  <distance_score>  (1142) 
13.551021027130894

>  <path>  (1142) 
/opt/xchem-fragalysis-2/maxwin/BulkDock/SCRATCH/511024/C25899-P127/C25899-P127.minimised.mol

>  <scratch_subdir>  (1142) 
/opt/xchem-fragalysis-2/maxwin/BulkDock/SCRATCH/511024/C25899-P127

>  <fragmenstein_runtime>  (1142) 
41.45314598083496

>  <fragmenstein_outcome>  (1142) 
too moved

>  <fragmenstein_mode>  (1142) 
expansion

>  <fragmenstein_error>  (1142) 


$$$$
C5303-P49
     RDKit          3D

 39 41  0  0  0  0  0  0  0  0999 V2000
   -9.7848  -11.7124   20.9984 O   0  0  0  0  0  0  0  0  0  0  0  0
  -10.3852  -12.3151   20.0560 C   0  0  0  0  0  0  0  0  0  0  0  0
  -10.2491  -11.7588   18.0520 N   0  0  0  0  0  0  0  0  0  0  0  0
   -9.3205  -10.0808   17.1263 C   0  0  0  0  0  0  0  0  0  0  0  0
   -8.9322   -8.6519   15.4606 C   0  0  0  0  0  0  0  0  0  0  0  0
   -9.6709   -7.0833   14.2840 N   0  0  0  0  0  0  0  0  0  0  0  0
   -9.2337   -6.4491   12.4633 C   0  0  0  0  0  0  0  0  0  0  0  0
   -8.4456   -7.1342   11.8672 O   0  0  0  0  0  0  0  0  0  0  0  0
   -9.6738   -4.7159   11.3087 C   0  0  0  0  0  0  0  0  0  0  0  0
   -8.4479   -3.8144   11.5209 C   0  0  0  0  0  0  0  0  0  0  0  0
   -8.1219   -2.3238   11.0629 C   0  0  0  0  0  0  0  0  0  0  0  0
   -8.5613   -1.6049    9.7159 C   0  0  0  0  0  0  0  0  0  0  0  0
   -9.6661   -2.2171    8.9661 N   0  0  0  0  0  0  0  0  0  0  0  0
  -10.3896   -3.4483    9.9088 C   0  0  0  0  0  0  0  0  0  0  0  0
  -12.2249   -3.6842    9.3930 C   0  0  0  0  0  0  0  0  0  0  0  0
  -12.8572   -2.8532    8.1786 C   0  0  0  0  0  0  0  0  0  0  0  0
  -13.4334   -2.6892    9.5174 C   0  0  0  0  0  0  0  0  0  0  0  0
  -11.5639  -13.6219   20.7395 C   0  0  0  0  0  0  0  0  0  0  0  0
  -12.4212  -15.2262   20.3742 C   0  0  0  0  0  0  0  0  0  0  0  0
  -13.2420  -16.1248   21.3385 C   0  0  0  0  0  0  0  0  0  0  0  0
  -12.9702  -15.5988   22.4970 N   0  0  0  0  0  0  0  0  0  0  0  0
  -11.7993  -14.9329   22.0907 N   0  0  0  0  0  0  0  0  0  0  0  0
  -10.7465  -12.4347   17.4719 H   0  0  0  0  0  0  0  0  0  0  0  0
   -8.4980  -10.7838   17.0114 H   0  0  0  0  0  0  0  0  0  0  0  0
   -9.5660   -9.2383   17.7317 H   0  0  0  0  0  0  0  0  0  0  0  0
   -8.1861   -9.0924   14.7810 H   0  0  0  0  0  0  0  0  0  0  0  0
   -8.3953   -7.9131   16.0462 H   0  0  0  0  0  0  0  0  0  0  0  0
  -10.2711   -6.3949   14.7248 H   0  0  0  0  0  0  0  0  0  0  0  0
   -7.5087   -4.3603   11.7073 H   0  0  0  0  0  0  0  0  0  0  0  0
   -7.7021   -1.6462   11.7558 H   0  0  0  0  0  0  0  0  0  0  0  0
   -8.3959   -0.6004    9.4387 H   0  0  0  0  0  0  0  0  0  0  0  0
  -12.5445   -4.6506    9.7853 H   0  0  0  0  0  0  0  0  0  0  0  0
  -12.2627   -2.0844    7.6893 H   0  0  0  0  0  0  0  0  0  0  0  0
  -13.7241   -3.0281    7.5416 H   0  0  0  0  0  0  0  0  0  0  0  0
  -14.4038   -3.1472    9.7143 H   0  0  0  0  0  0  0  0  0  0  0  0
  -13.4284   -1.6772    9.9064 H   0  0  0  0  0  0  0  0  0  0  0  0
  -12.0821  -15.6852   19.4262 H   0  0  0  0  0  0  0  0  0  0  0  0
  -13.8647  -16.9923   21.1565 H   0  0  0  0  0  0  0  0  0  0  0  0
  -11.1454  -15.6582   22.3017 H   0  0  0  0  0  0  0  0  0  0  0  0
  1  2  2  0
  2  3  1  0
  3  4  1  0
  4  5  1  0
  5  6  1  0
  6  7  1  0
  7  8  2  0
  7  9  1  0
  9 10  2  0
 10 11  1  0
 11 12  2  0
 12 13  1  0
 13 14  2  0
 14 15  1  0
 15 16  1  0
 16 17  1  0
  2 18  1  0
 18 19  2  0
 19 20  1  0
 20 21  2  0
 21 22  1  0
 14  9  1  0
 17 15  1  0
 22 18  1  0
  3 23  1  0
  4 24  1  0
  4 25  1  0
  5 26  1  0
  5 27  1  0
  6 28  1  0
 10 29  1  0
 11 30  1  0
 12 31  1  0
 15 32  1  0
 16 33  1  0
 16 34  1  0
 17 35  1  0
 17 36  1  0
 19 37  1  0
 20 38  1  0
 22 39  1  0
M  END
>  <Energy>  (1143) 
1573.7554681540266

>  <compound_id>  (1143) 
5303

>  <target_id>  (1143) 
1

>  <reference_id>  (1143) 
49

>  <inspiration_ids>  (1143) 
[49, 127]

>  <energy_score>  (1143) 
1536.7439576346658

>  <distance_score>  (1143) 
10.196646649146254

>  <path>  (1143) 
/opt/xchem-fragalysis-2/maxwin/BulkDock/SCRATCH/511024/C5303-P49/C5303-P49.minimised.mol

>  <scratch_subdir>  (1143) 
/opt/xchem-fragalysis-2/maxwin/BulkDock/SCRATCH/511024/C5303-P49

>  <fragmenstein_runtime>  (1143) 
39.40629959106445

>  <fragmenstein_outcome>  (1143) 
too moved

>  <fragmenstein_mode>  (1143) 
expansion

>  <fragmenstein_error>  (1143) 


$$$$
C5303-P127
     RDKit          3D

 39 41  0  0  0  0  0  0  0  0999 V2000
   -8.7382  -12.1046   22.3743 O   0  0  0  0  0  0  0  0  0  0  0  0
   -7.5561  -12.0641   22.2034 C   0  0  0  0  0  0  0  0  0  0  0  0
   -6.7463  -12.1344   20.6581 N   0  0  0  0  0  0  0  0  0  0  0  0
   -7.3805  -12.3958   19.0204 C   0  0  0  0  0  0  0  0  0  0  0  0
   -7.4053  -11.2901   17.6119 C   0  0  0  0  0  0  0  0  0  0  0  0
   -6.9212   -9.7789   16.8216 N   0  0  0  0  0  0  0  0  0  0  0  0
   -7.2469   -8.1021   17.2398 C   0  0  0  0  0  0  0  0  0  0  0  0
   -7.8577   -7.7409   18.2099 O   0  0  0  0  0  0  0  0  0  0  0  0
   -6.7926   -6.7520   16.3214 C   0  0  0  0  0  0  0  0  0  0  0  0
   -5.5262   -6.1536   16.4690 C   0  0  0  0  0  0  0  0  0  0  0  0
   -5.0802   -5.1230   15.6650 C   0  0  0  0  0  0  0  0  0  0  0  0
   -5.9149   -4.7495   14.6582 C   0  0  0  0  0  0  0  0  0  0  0  0
   -7.1759   -5.1583   14.5923 N   0  0  0  0  0  0  0  0  0  0  0  0
   -7.6462   -5.8074   15.6876 C   0  0  0  0  0  0  0  0  0  0  0  0
   -8.5780   -4.7719   16.3987 C   0  0  0  0  0  0  0  0  0  0  0  0
   -9.8221   -4.9018   17.2154 C   0  0  0  0  0  0  0  0  0  0  0  0
   -9.9586   -4.5742   15.7671 C   0  0  0  0  0  0  0  0  0  0  0  0
   -6.8550  -12.0079   23.5207 C   0  0  0  0  0  0  0  0  0  0  0  0
   -7.1079  -11.4336   24.8177 C   0  0  0  0  0  0  0  0  0  0  0  0
   -6.6966  -12.2561   25.8320 C   0  0  0  0  0  0  0  0  0  0  0  0
   -6.9600  -13.4032   25.3680 N   0  0  0  0  0  0  0  0  0  0  0  0
   -6.2910  -13.1437   23.9775 N   0  0  0  0  0  0  0  0  0  0  0  0
   -5.7224  -11.9926   20.7987 H   0  0  0  0  0  0  0  0  0  0  0  0
   -8.2466  -13.0616   18.9938 H   0  0  0  0  0  0  0  0  0  0  0  0
   -6.4510  -12.8581   18.7173 H   0  0  0  0  0  0  0  0  0  0  0  0
   -6.3430  -11.5401   17.4675 H   0  0  0  0  0  0  0  0  0  0  0  0
   -7.8967  -10.7018   18.3778 H   0  0  0  0  0  0  0  0  0  0  0  0
   -6.4899   -9.8153   15.9678 H   0  0  0  0  0  0  0  0  0  0  0  0
   -4.7140   -6.6249   17.0051 H   0  0  0  0  0  0  0  0  0  0  0  0
   -4.0585   -4.7981   15.7785 H   0  0  0  0  0  0  0  0  0  0  0  0
   -5.6046   -4.0897   13.8807 H   0  0  0  0  0  0  0  0  0  0  0  0
   -8.0300   -3.8570   16.6338 H   0  0  0  0  0  0  0  0  0  0  0  0
  -10.1611   -5.8486   17.5913 H   0  0  0  0  0  0  0  0  0  0  0  0
  -10.0269   -4.1097   17.9316 H   0  0  0  0  0  0  0  0  0  0  0  0
  -10.3498   -3.5967   15.5450 H   0  0  0  0  0  0  0  0  0  0  0  0
  -10.3345   -5.3234   15.0843 H   0  0  0  0  0  0  0  0  0  0  0  0
   -7.5690  -10.5289   25.0534 H   0  0  0  0  0  0  0  0  0  0  0  0
   -6.3409  -12.4207   26.8322 H   0  0  0  0  0  0  0  0  0  0  0  0
   -6.0512  -13.9795   23.4619 H   0  0  0  0  0  0  0  0  0  0  0  0
  1  2  2  0
  2  3  1  0
  3  4  1  0
  4  5  1  0
  5  6  1  0
  6  7  1  0
  7  8  2  0
  7  9  1  0
  9 10  2  0
 10 11  1  0
 11 12  2  0
 12 13  1  0
 13 14  2  0
 14 15  1  0
 15 16  1  0
 16 17  1  0
  2 18  1  0
 18 19  2  0
 19 20  1  0
 20 21  2  0
 21 22  1  0
 14  9  1  0
 17 15  1  0
 22 18  1  0
  3 23  1  0
  4 24  1  0
  4 25  1  0
  5 26  1  0
  5 27  1  0
  6 28  1  0
 10 29  1  0
 11 30  1  0
 12 31  1  0
 15 32  1  0
 16 33  1  0
 16 34  1  0
 17 35  1  0
 17 36  1  0
 19 37  1  0
 20 38  1  0
 22 39  1  0
M  END
>  <Energy>  (1144) 
422.87115081545141

>  <compound_id>  (1144) 
5303

>  <target_id>  (1144) 
1

>  <reference_id>  (1144) 
127

>  <inspiration_ids>  (1144) 
[49, 127]

>  <energy_score>  (1144) 
385.85964029606373

>  <distance_score>  (1144) 
12.312827478163738

>  <path>  (1144) 
/opt/xchem-fragalysis-2/maxwin/BulkDock/SCRATCH/511024/C5303-P127/C5303-P127.minimised.mol

>  <scratch_subdir>  (1144) 
/opt/xchem-fragalysis-2/maxwin/BulkDock/SCRATCH/511024/C5303-P127

>  <fragmenstein_runtime>  (1144) 
41.87272524833679

>  <fragmenstein_outcome>  (1144) 
too moved

>  <fragmenstein_mode>  (1144) 
expansion

>  <fragmenstein_error>  (1144) 


$$$$
C23238-P48
     RDKit          3D

 38 39  0  0  0  0  0  0  0  0999 V2000
  -10.5446  -25.3077   15.6165 C   0  0  0  0  0  0  0  0  0  0  0  0
  -11.0334  -24.6001   14.5246 N   0  0  0  0  0  0  0  0  0  0  0  0
   -9.9809  -23.2757   15.2486 C   0  0  0  0  0  0  0  0  0  0  0  0
   -9.6900  -21.7938   16.5285 C   0  0  0  0  0  0  0  0  0  0  0  0
   -9.0877  -21.2666   18.3741 N   0  0  0  0  0  0  0  0  0  0  0  0
   -9.9334  -21.4942   20.1197 C   0  0  0  0  0  0  0  0  0  0  0  0
  -11.0599  -21.9426   20.2331 O   0  0  0  0  0  0  0  0  0  0  0  0
   -9.3606  -21.3165   21.4597 C   0  0  0  0  0  0  0  0  0  0  0  0
  -10.6767  -21.4006   22.5726 C   0  0  0  0  0  0  0  0  0  0  0  0
  -11.8721  -20.8672   22.6266 N   0  0  0  0  0  0  0  0  0  0  0  0
  -12.5965  -21.5217   23.6045 C   0  0  0  0  0  0  0  0  0  0  0  0
  -11.8555  -22.4536   24.1933 C   0  0  0  0  0  0  0  0  0  0  0  0
  -10.6848  -22.3800   23.4983 N   0  0  0  0  0  0  0  0  0  0  0  0
  -10.7656  -24.7441   13.1400 C   0  0  0  0  0  0  0  0  0  0  0  0
   -9.9777  -25.4504   12.5653 O   0  0  0  0  0  0  0  0  0  0  0  0
  -11.6403  -24.0234   12.1814 C   0  0  0  0  0  0  0  0  0  0  0  0
  -11.5545  -24.4944   10.8480 C   0  0  0  0  0  0  0  0  0  0  0  0
  -12.6651  -24.6171   10.0070 C   0  0  0  0  0  0  0  0  0  0  0  0
  -13.8980  -24.3240   10.5400 C   0  0  0  0  0  0  0  0  0  0  0  0
  -14.0662  -23.9238   11.8177 N   0  0  0  0  0  0  0  0  0  0  0  0
  -12.9458  -23.7915   12.5982 C   0  0  0  0  0  0  0  0  0  0  0  0
  -11.2596  -25.3176   16.4424 H   0  0  0  0  0  0  0  0  0  0  0  0
  -10.8038  -26.3373   15.2931 H   0  0  0  0  0  0  0  0  0  0  0  0
   -9.4782  -25.5422   15.6622 H   0  0  0  0  0  0  0  0  0  0  0  0
   -8.9895  -23.6585   15.0998 H   0  0  0  0  0  0  0  0  0  0  0  0
  -10.0839  -22.6073   14.3726 H   0  0  0  0  0  0  0  0  0  0  0  0
   -8.7741  -22.0206   16.0313 H   0  0  0  0  0  0  0  0  0  0  0  0
   -9.8659  -20.8780   15.9606 H   0  0  0  0  0  0  0  0  0  0  0  0
   -8.2338  -20.8202   18.4831 H   0  0  0  0  0  0  0  0  0  0  0  0
   -8.5478  -20.7726   21.9300 H   0  0  0  0  0  0  0  0  0  0  0  0
   -9.2438  -22.3201   21.6336 H   0  0  0  0  0  0  0  0  0  0  0  0
  -13.6077  -21.3332   23.9201 H   0  0  0  0  0  0  0  0  0  0  0  0
  -12.0419  -23.0379   25.0855 H   0  0  0  0  0  0  0  0  0  0  0  0
   -9.8550  -22.9257   23.6407 H   0  0  0  0  0  0  0  0  0  0  0  0
  -10.6361  -24.9753   10.5077 H   0  0  0  0  0  0  0  0  0  0  0  0
  -12.5637  -25.0033    8.9989 H   0  0  0  0  0  0  0  0  0  0  0  0
  -14.8075  -24.4230    9.9557 H   0  0  0  0  0  0  0  0  0  0  0  0
  -13.1829  -23.6186   13.6420 H   0  0  0  0  0  0  0  0  0  0  0  0
  1  2  1  0
  2  3  1  0
  3  4  1  0
  4  5  1  0
  5  6  1  0
  6  7  2  0
  6  8  1  0
  8  9  1  0
  9 10  2  0
 10 11  1  0
 11 12  2  0
 12 13  1  0
  2 14  1  0
 14 15  2  0
 14 16  1  0
 16 17  2  0
 17 18  1  0
 18 19  2  0
 19 20  1  0
 20 21  2  0
 13  9  1  0
 21 16  1  0
  1 22  1  0
  1 23  1  0
  1 24  1  0
  3 25  1  0
  3 26  1  0
  4 27  1  0
  4 28  1  0
  5 29  1  0
  8 30  1  0
  8 31  1  0
 11 32  1  0
 12 33  1  0
 13 34  1  0
 17 35  1  0
 18 36  1  0
 19 37  1  0
 21 38  1  0
M  END
>  <Energy>  (1145) 
550.80796461955333

>  <compound_id>  (1145) 
23238

>  <target_id>  (1145) 
1

>  <reference_id>  (1145) 
48

>  <inspiration_ids>  (1145) 
[48, 115]

>  <energy_score>  (1145) 
490.59279608233584

>  <distance_score>  (1145) 
5.659699498359493

>  <path>  (1145) 
/opt/xchem-fragalysis-2/maxwin/BulkDock/SCRATCH/511024/C23238-P48/C23238-P48.minimised.mol

>  <scratch_subdir>  (1145) 
/opt/xchem-fragalysis-2/maxwin/BulkDock/SCRATCH/511024/C23238-P48

>  <fragmenstein_runtime>  (1145) 
6.942446231842041

>  <fragmenstein_outcome>  (1145) 
too moved

>  <fragmenstein_mode>  (1145) 
expansion

>  <fragmenstein_error>  (1145) 


$$$$
C23238-P115
     RDKit          3D

 38 39  0  0  0  0  0  0  0  0999 V2000
  -10.4997  -25.2547   15.0330 C   0  0  0  0  0  0  0  0  0  0  0  0
  -10.6804  -24.3754   13.9168 N   0  0  0  0  0  0  0  0  0  0  0  0
   -9.7595  -23.2672   14.9618 C   0  0  0  0  0  0  0  0  0  0  0  0
   -9.7143  -21.9062   16.3784 C   0  0  0  0  0  0  0  0  0  0  0  0
   -9.3130  -21.4829   18.3177 N   0  0  0  0  0  0  0  0  0  0  0  0
  -10.3515  -21.7672   19.9220 C   0  0  0  0  0  0  0  0  0  0  0  0
  -11.5050  -22.1970   19.9156 O   0  0  0  0  0  0  0  0  0  0  0  0
   -9.9485  -21.4804   21.3338 C   0  0  0  0  0  0  0  0  0  0  0  0
  -10.9121  -22.0161   22.4981 C   0  0  0  0  0  0  0  0  0  0  0  0
  -12.1631  -21.6580   22.7249 N   0  0  0  0  0  0  0  0  0  0  0  0
  -12.6173  -22.3513   23.8018 C   0  0  0  0  0  0  0  0  0  0  0  0
  -11.6223  -23.1340   24.3053 C   0  0  0  0  0  0  0  0  0  0  0  0
  -10.5531  -22.9103   23.4577 N   0  0  0  0  0  0  0  0  0  0  0  0
  -10.1100  -24.4089   12.6114 C   0  0  0  0  0  0  0  0  0  0  0  0
   -9.2626  -25.1275   12.1440 O   0  0  0  0  0  0  0  0  0  0  0  0
  -10.6587  -23.5392   11.5778 C   0  0  0  0  0  0  0  0  0  0  0  0
   -9.8661  -22.7483   10.7650 C   0  0  0  0  0  0  0  0  0  0  0  0
  -10.2292  -22.5757    9.4202 C   0  0  0  0  0  0  0  0  0  0  0  0
  -11.3492  -23.2240    8.9205 C   0  0  0  0  0  0  0  0  0  0  0  0
  -12.1530  -23.9923    9.6774 N   0  0  0  0  0  0  0  0  0  0  0  0
  -11.7756  -24.1440   10.9781 C   0  0  0  0  0  0  0  0  0  0  0  0
  -10.8581  -26.1951   14.5703 H   0  0  0  0  0  0  0  0  0  0  0  0
   -9.4881  -25.6242   15.2192 H   0  0  0  0  0  0  0  0  0  0  0  0
  -11.2492  -25.2401   15.8216 H   0  0  0  0  0  0  0  0  0  0  0  0
   -8.7761  -23.6817   14.9853 H   0  0  0  0  0  0  0  0  0  0  0  0
   -9.6550  -22.5188   14.1507 H   0  0  0  0  0  0  0  0  0  0  0  0
   -8.8215  -22.1142   15.8647 H   0  0  0  0  0  0  0  0  0  0  0  0
   -9.9205  -20.9682   15.8766 H   0  0  0  0  0  0  0  0  0  0  0  0
   -8.4726  -21.0641   18.5465 H   0  0  0  0  0  0  0  0  0  0  0  0
   -9.0391  -21.1529   21.7807 H   0  0  0  0  0  0  0  0  0  0  0  0
  -10.7039  -20.6769   21.3641 H   0  0  0  0  0  0  0  0  0  0  0  0
  -13.6396  -22.2687   24.1328 H   0  0  0  0  0  0  0  0  0  0  0  0
  -11.5682  -23.8040   25.1534 H   0  0  0  0  0  0  0  0  0  0  0  0
   -9.6519  -23.3642   23.4788 H   0  0  0  0  0  0  0  0  0  0  0  0
   -8.9350  -22.3382   11.1460 H   0  0  0  0  0  0  0  0  0  0  0  0
   -9.6289  -21.9508    8.7705 H   0  0  0  0  0  0  0  0  0  0  0  0
  -11.6384  -23.1290    7.8784 H   0  0  0  0  0  0  0  0  0  0  0  0
  -12.3683  -24.8745   11.5269 H   0  0  0  0  0  0  0  0  0  0  0  0
  1  2  1  0
  2  3  1  0
  3  4  1  0
  4  5  1  0
  5  6  1  0
  6  7  2  0
  6  8  1  0
  8  9  1  0
  9 10  2  0
 10 11  1  0
 11 12  2  0
 12 13  1  0
  2 14  1  0
 14 15  2  0
 14 16  1  0
 16 17  2  0
 17 18  1  0
 18 19  2  0
 19 20  1  0
 20 21  2  0
 13  9  1  0
 21 16  1  0
  1 22  1  0
  1 23  1  0
  1 24  1  0
  3 25  1  0
  3 26  1  0
  4 27  1  0
  4 28  1  0
  5 29  1  0
  8 30  1  0
  8 31  1  0
 11 32  1  0
 12 33  1  0
 13 34  1  0
 17 35  1  0
 18 36  1  0
 19 37  1  0
 21 38  1  0
M  END
>  <Energy>  (1146) 
532.20227689078013

>  <compound_id>  (1146) 
23238

>  <target_id>  (1146) 
1

>  <reference_id>  (1146) 
115

>  <inspiration_ids>  (1146) 
[48, 115]

>  <energy_score>  (1146) 
471.98710835356985

>  <distance_score>  (1146) 
5.519798409817973

>  <path>  (1146) 
/opt/xchem-fragalysis-2/maxwin/BulkDock/SCRATCH/511024/C23238-P115/C23238-P115.minimised.mol

>  <scratch_subdir>  (1146) 
/opt/xchem-fragalysis-2/maxwin/BulkDock/SCRATCH/511024/C23238-P115

>  <fragmenstein_runtime>  (1146) 
9.324852705001831

>  <fragmenstein_outcome>  (1146) 
too moved

>  <fragmenstein_mode>  (1146) 
expansion

>  <fragmenstein_error>  (1146) 


$$$$
C23239-P48
     RDKit          3D

 45 47  0  0  0  0  0  0  0  0999 V2000
   -9.7034  -27.0026   16.5759 C   0  0  0  0  0  0  0  0  0  0  0  0
   -8.5312  -26.8443   15.7605 N   0  0  0  0  0  0  0  0  0  0  0  0
   -7.2079  -27.5475   15.8073 C   0  0  0  0  0  0  0  0  0  0  0  0
   -6.7766  -28.3463   16.5948 O   0  0  0  0  0  0  0  0  0  0  0  0
   -6.2696  -27.3923   14.6918 C   0  0  0  0  0  0  0  0  0  0  0  0
   -4.8887  -27.4045   14.7104 C   0  0  0  0  0  0  0  0  0  0  0  0
   -4.2068  -27.4653   13.4860 C   0  0  0  0  0  0  0  0  0  0  0  0
   -4.9207  -27.6091   12.2970 C   0  0  0  0  0  0  0  0  0  0  0  0
   -6.2544  -27.7600   12.2455 N   0  0  0  0  0  0  0  0  0  0  0  0
   -6.8802  -27.7044   13.4456 C   0  0  0  0  0  0  0  0  0  0  0  0
   -8.4674  -25.2313   16.6848 C   0  0  0  0  0  0  0  0  0  0  0  0
   -7.0284  -24.6198   18.1793 C   0  0  0  0  0  0  0  0  0  0  0  0
   -7.4163  -24.4020   20.0802 N   0  0  0  0  0  0  0  0  0  0  0  0
   -6.3486  -23.9943   21.4585 C   0  0  0  0  0  0  0  0  0  0  0  0
   -5.1258  -23.9131   21.4280 O   0  0  0  0  0  0  0  0  0  0  0  0
   -7.0116  -23.3479   23.1847 C   0  0  0  0  0  0  0  0  0  0  0  0
   -8.7899  -22.6117   23.2683 C   0  0  0  0  0  0  0  0  0  0  0  0
   -9.2835  -21.6015   22.4930 N   0  0  0  0  0  0  0  0  0  0  0  0
  -10.6654  -21.5163   22.4902 C   0  0  0  0  0  0  0  0  0  0  0  0
  -11.1568  -22.2576   23.4902 C   0  0  0  0  0  0  0  0  0  0  0  0
  -10.0313  -22.9978   23.8819 N   0  0  0  0  0  0  0  0  0  0  0  0
   -9.4938  -24.3877   15.2761 C   0  0  0  0  0  0  0  0  0  0  0  0
   -9.6215  -24.9902   13.8527 C   0  0  0  0  0  0  0  0  0  0  0  0
  -10.8364  -24.8784   14.6781 C   0  0  0  0  0  0  0  0  0  0  0  0
   -9.5263  -27.5249   17.4660 H   0  0  0  0  0  0  0  0  0  0  0  0
  -10.4879  -26.2623   16.6707 H   0  0  0  0  0  0  0  0  0  0  0  0
  -10.2444  -27.7788   16.0095 H   0  0  0  0  0  0  0  0  0  0  0  0
   -4.3493  -27.3495   15.6506 H   0  0  0  0  0  0  0  0  0  0  0  0
   -3.1226  -27.4121   13.4634 H   0  0  0  0  0  0  0  0  0  0  0  0
   -4.4081  -27.6416   11.3398 H   0  0  0  0  0  0  0  0  0  0  0  0
   -7.9496  -27.8970   13.3891 H   0  0  0  0  0  0  0  0  0  0  0  0
   -8.2448  -24.1898   16.4463 H   0  0  0  0  0  0  0  0  0  0  0  0
   -6.6835  -23.7034   17.7700 H   0  0  0  0  0  0  0  0  0  0  0  0
   -6.2095  -25.3335   18.2999 H   0  0  0  0  0  0  0  0  0  0  0  0
   -8.3323  -24.4937   20.3962 H   0  0  0  0  0  0  0  0  0  0  0  0
   -6.4005  -22.4497   23.2260 H   0  0  0  0  0  0  0  0  0  0  0  0
   -6.6170  -23.7199   24.1222 H   0  0  0  0  0  0  0  0  0  0  0  0
  -11.2179  -20.9251   21.7819 H   0  0  0  0  0  0  0  0  0  0  0  0
  -12.1441  -22.4026   23.9047 H   0  0  0  0  0  0  0  0  0  0  0  0
  -10.0857  -23.7468   24.5618 H   0  0  0  0  0  0  0  0  0  0  0  0
   -9.4047  -23.2931   15.3018 H   0  0  0  0  0  0  0  0  0  0  0  0
   -9.5220  -24.3099   13.0121 H   0  0  0  0  0  0  0  0  0  0  0  0
   -9.2894  -25.9908   13.6207 H   0  0  0  0  0  0  0  0  0  0  0  0
  -11.3179  -25.8086   14.9368 H   0  0  0  0  0  0  0  0  0  0  0  0
  -11.5454  -24.1549   14.2868 H   0  0  0  0  0  0  0  0  0  0  0  0
  1  2  1  0
  2  3  1  0
  3  4  2  0
  3  5  1  0
  5  6  2  0
  6  7  1  0
  7  8  2  0
  8  9  1  0
  9 10  2  0
  2 11  1  0
 11 12  1  0
 12 13  1  0
 13 14  1  0
 14 15  2  0
 14 16  1  0
 16 17  1  0
 17 18  2  0
 18 19  1  0
 19 20  2  0
 20 21  1  0
 11 22  1  0
 22 23  1  0
 23 24  1  0
 10  5  1  0
 21 17  1  0
 24 22  1  0
  1 25  1  0
  1 26  1  0
  1 27  1  0
  6 28  1  0
  7 29  1  0
  8 30  1  0
 10 31  1  0
 11 32  1  0
 12 33  1  0
 12 34  1  0
 13 35  1  0
 16 36  1  0
 16 37  1  0
 19 38  1  0
 20 39  1  0
 21 40  1  0
 22 41  1  0
 23 42  1  0
 23 43  1  0
 24 44  1  0
 24 45  1  0
M  END
>  <Energy>  (1147) 
648.63607663853361

>  <compound_id>  (1147) 
23239

>  <target_id>  (1147) 
1

>  <reference_id>  (1147) 
48

>  <inspiration_ids>  (1147) 
[48, 115]

>  <energy_score>  (1147) 
543.3549430286748

>  <distance_score>  (1147) 
7.617008038178293

>  <path>  (1147) 
/opt/xchem-fragalysis-2/maxwin/BulkDock/SCRATCH/511024/C23239-P48/C23239-P48.minimised.mol

>  <scratch_subdir>  (1147) 
/opt/xchem-fragalysis-2/maxwin/BulkDock/SCRATCH/511024/C23239-P48

>  <fragmenstein_runtime>  (1147) 
8.498778343200684

>  <fragmenstein_outcome>  (1147) 
too moved

>  <fragmenstein_mode>  (1147) 
expansion

>  <fragmenstein_error>  (1147) 


$$$$
C23239-P115
     RDKit          3D

 45 47  0  0  0  0  0  0  0  0999 V2000
  -10.8676  -26.6842   16.3029 C   0  0  0  0  0  0  0  0  0  0  0  0
  -10.2735  -26.9514   15.0467 N   0  0  0  0  0  0  0  0  0  0  0  0
   -9.6184  -28.1164   14.5550 C   0  0  0  0  0  0  0  0  0  0  0  0
   -9.3198  -29.1377   15.1093 O   0  0  0  0  0  0  0  0  0  0  0  0
   -9.4036  -27.9689   13.0837 C   0  0  0  0  0  0  0  0  0  0  0  0
  -10.4935  -27.6396   12.2585 C   0  0  0  0  0  0  0  0  0  0  0  0
  -10.3161  -27.4952   10.8838 C   0  0  0  0  0  0  0  0  0  0  0  0
   -9.0455  -27.6888   10.3764 C   0  0  0  0  0  0  0  0  0  0  0  0
   -7.9786  -28.0238   11.1393 N   0  0  0  0  0  0  0  0  0  0  0  0
   -8.1838  -28.1765   12.4772 C   0  0  0  0  0  0  0  0  0  0  0  0
   -9.0902  -25.8018   15.6354 C   0  0  0  0  0  0  0  0  0  0  0  0
   -8.0351  -24.6452   16.9946 C   0  0  0  0  0  0  0  0  0  0  0  0
   -7.2394  -25.1066   18.8951 N   0  0  0  0  0  0  0  0  0  0  0  0
   -7.6290  -24.4552   20.6974 C   0  0  0  0  0  0  0  0  0  0  0  0
   -8.4988  -23.7330   20.9577 O   0  0  0  0  0  0  0  0  0  0  0  0
   -6.6053  -24.7029   22.2350 C   0  0  0  0  0  0  0  0  0  0  0  0
   -7.9423  -23.7264   23.3538 C   0  0  0  0  0  0  0  0  0  0  0  0
   -8.6626  -24.4118   24.2594 N   0  0  0  0  0  0  0  0  0  0  0  0
  -10.0671  -24.1931   24.4615 C   0  0  0  0  0  0  0  0  0  0  0  0
  -10.3964  -23.1585   23.6705 C   0  0  0  0  0  0  0  0  0  0  0  0
   -9.1911  -22.8648   23.0066 N   0  0  0  0  0  0  0  0  0  0  0  0
   -9.9093  -24.6961   14.5393 C   0  0  0  0  0  0  0  0  0  0  0  0
   -9.6547  -24.5346   13.0576 C   0  0  0  0  0  0  0  0  0  0  0  0
   -9.5659  -23.3348   13.9821 C   0  0  0  0  0  0  0  0  0  0  0  0
  -11.4195  -25.7551   16.3562 H   0  0  0  0  0  0  0  0  0  0  0  0
  -11.7176  -27.3885   16.2947 H   0  0  0  0  0  0  0  0  0  0  0  0
  -10.3888  -27.0322   17.1553 H   0  0  0  0  0  0  0  0  0  0  0  0
  -11.4783  -27.4881   12.6929 H   0  0  0  0  0  0  0  0  0  0  0  0
  -11.1433  -27.2354   10.2341 H   0  0  0  0  0  0  0  0  0  0  0  0
   -8.8401  -27.5857    9.3148 H   0  0  0  0  0  0  0  0  0  0  0  0
   -7.3081  -28.4625   13.0522 H   0  0  0  0  0  0  0  0  0  0  0  0
   -8.2841  -26.4313   15.2194 H   0  0  0  0  0  0  0  0  0  0  0  0
   -6.9942  -24.5247   17.0082 H   0  0  0  0  0  0  0  0  0  0  0  0
   -7.6326  -24.0221   16.1760 H   0  0  0  0  0  0  0  0  0  0  0  0
   -6.4706  -25.8259   18.9213 H   0  0  0  0  0  0  0  0  0  0  0  0
   -6.3486  -25.6728   22.6544 H   0  0  0  0  0  0  0  0  0  0  0  0
   -5.6706  -24.1526   22.3822 H   0  0  0  0  0  0  0  0  0  0  0  0
  -10.6574  -24.7474   25.1782 H   0  0  0  0  0  0  0  0  0  0  0  0
  -11.2966  -22.6039   23.4379 H   0  0  0  0  0  0  0  0  0  0  0  0
   -9.4622  -22.7533   22.0452 H   0  0  0  0  0  0  0  0  0  0  0  0
  -10.9753  -24.8306   14.6731 H   0  0  0  0  0  0  0  0  0  0  0  0
  -10.5173  -24.5673   12.3948 H   0  0  0  0  0  0  0  0  0  0  0  0
   -8.7971  -24.9725   12.5748 H   0  0  0  0  0  0  0  0  0  0  0  0
  -10.3240  -22.5861   13.7882 H   0  0  0  0  0  0  0  0  0  0  0  0
   -8.6812  -22.8386   14.3466 H   0  0  0  0  0  0  0  0  0  0  0  0
  1  2  1  0
  2  3  1  0
  3  4  2  0
  3  5  1  0
  5  6  2  0
  6  7  1  0
  7  8  2  0
  8  9  1  0
  9 10  2  0
  2 11  1  0
 11 12  1  0
 12 13  1  0
 13 14  1  0
 14 15  2  0
 14 16  1  0
 16 17  1  0
 17 18  2  0
 18 19  1  0
 19 20  2  0
 20 21  1  0
 11 22  1  0
 22 23  1  0
 23 24  1  0
 10  5  1  0
 21 17  1  0
 24 22  1  0
  1 25  1  0
  1 26  1  0
  1 27  1  0
  6 28  1  0
  7 29  1  0
  8 30  1  0
 10 31  1  0
 11 32  1  0
 12 33  1  0
 12 34  1  0
 13 35  1  0
 16 36  1  0
 16 37  1  0
 19 38  1  0
 20 39  1  0
 21 40  1  0
 22 41  1  0
 23 42  1  0
 23 43  1  0
 24 44  1  0
 24 45  1  0
M  END
>  <Energy>  (1148) 
770.73376571009896

>  <compound_id>  (1148) 
23239

>  <target_id>  (1148) 
1

>  <reference_id>  (1148) 
115

>  <inspiration_ids>  (1148) 
[48, 115]

>  <energy_score>  (1148) 
665.4526321002351

>  <distance_score>  (1148) 
5.5722087116162475

>  <path>  (1148) 
/opt/xchem-fragalysis-2/maxwin/BulkDock/SCRATCH/511024/C23239-P115/C23239-P115.minimised.mol

>  <scratch_subdir>  (1148) 
/opt/xchem-fragalysis-2/maxwin/BulkDock/SCRATCH/511024/C23239-P115

>  <fragmenstein_runtime>  (1148) 
12.172278642654419

>  <fragmenstein_outcome>  (1148) 
too moved

>  <fragmenstein_mode>  (1148) 
expansion

>  <fragmenstein_error>  (1148) 


$$$$
C23240-P48
     RDKit          3D

 44 45  0  0  0  0  0  0  0  0999 V2000
  -17.8753  -24.6044   25.1733 C   0  0  0  0  0  0  0  0  0  0  0  0
  -17.1305  -26.2695   24.8463 C   0  0  0  0  0  0  0  0  0  0  0  0
  -17.7288  -26.7886   23.8185 N   0  0  0  0  0  0  0  0  0  0  0  0
  -18.3443  -28.1636   23.4911 C   0  0  0  0  0  0  0  0  0  0  0  0
  -18.3472  -29.1725   24.0602 O   0  0  0  0  0  0  0  0  0  0  0  0
  -19.0342  -28.0929   22.1542 C   0  0  0  0  0  0  0  0  0  0  0  0
  -19.6941  -29.2329   21.6861 C   0  0  0  0  0  0  0  0  0  0  0  0
  -20.3146  -29.1740   20.4517 C   0  0  0  0  0  0  0  0  0  0  0  0
  -20.3172  -28.0758   19.6684 N   0  0  0  0  0  0  0  0  0  0  0  0
  -19.6791  -26.9847   20.1411 C   0  0  0  0  0  0  0  0  0  0  0  0
  -19.0294  -26.9424   21.3623 C   0  0  0  0  0  0  0  0  0  0  0  0
  -16.5274  -26.4652   25.3535 C   0  0  0  0  0  0  0  0  0  0  0  0
  -14.8914  -26.0616   24.8193 C   0  0  0  0  0  0  0  0  0  0  0  0
  -16.2856  -28.1156   25.9762 C   0  0  0  0  0  0  0  0  0  0  0  0
  -15.1990  -28.2713   26.9157 N   0  0  0  0  0  0  0  0  0  0  0  0
  -14.9058  -27.5811   28.1378 C   0  0  0  0  0  0  0  0  0  0  0  0
  -15.4434  -26.6441   28.6538 O   0  0  0  0  0  0  0  0  0  0  0  0
  -13.6407  -28.1536   28.8008 C   0  0  0  0  0  0  0  0  0  0  0  0
  -12.6551  -27.0411   28.9207 C   0  0  0  0  0  0  0  0  0  0  0  0
  -11.9834  -26.4813   27.9323 N   0  0  0  0  0  0  0  0  0  0  0  0
  -11.3144  -25.4254   28.5012 C   0  0  0  0  0  0  0  0  0  0  0  0
  -11.5401  -25.3771   29.8538 C   0  0  0  0  0  0  0  0  0  0  0  0
  -12.3935  -26.4101   30.1130 N   0  0  0  0  0  0  0  0  0  0  0  0
  -17.0748  -23.8565   25.1360 H   0  0  0  0  0  0  0  0  0  0  0  0
  -18.3231  -24.6027   26.1744 H   0  0  0  0  0  0  0  0  0  0  0  0
  -18.6383  -24.4093   24.4120 H   0  0  0  0  0  0  0  0  0  0  0  0
  -18.2587  -26.5590   25.3554 H   0  0  0  0  0  0  0  0  0  0  0  0
  -16.7978  -25.5491   23.8835 H   0  0  0  0  0  0  0  0  0  0  0  0
  -19.7278  -30.1476   22.2685 H   0  0  0  0  0  0  0  0  0  0  0  0
  -20.8416  -30.0335   20.0468 H   0  0  0  0  0  0  0  0  0  0  0  0
  -19.7035  -26.1142   19.4906 H   0  0  0  0  0  0  0  0  0  0  0  0
  -18.5402  -26.0250   21.6665 H   0  0  0  0  0  0  0  0  0  0  0  0
  -16.7291  -25.9877   26.5024 H   0  0  0  0  0  0  0  0  0  0  0  0
  -14.1630  -26.4219   25.5470 H   0  0  0  0  0  0  0  0  0  0  0  0
  -14.8094  -24.9716   24.7585 H   0  0  0  0  0  0  0  0  0  0  0  0
  -14.7096  -26.5044   23.8421 H   0  0  0  0  0  0  0  0  0  0  0  0
  -16.1082  -28.7975   25.1471 H   0  0  0  0  0  0  0  0  0  0  0  0
  -17.2132  -28.4028   26.4854 H   0  0  0  0  0  0  0  0  0  0  0  0
  -14.5851  -29.0724   26.8340 H   0  0  0  0  0  0  0  0  0  0  0  0
  -13.1956  -28.9677   28.2212 H   0  0  0  0  0  0  0  0  0  0  0  0
  -13.9223  -28.5575   29.7792 H   0  0  0  0  0  0  0  0  0  0  0  0
  -10.7044  -24.7537   27.9096 H   0  0  0  0  0  0  0  0  0  0  0  0
  -11.2069  -24.7010   30.6274 H   0  0  0  0  0  0  0  0  0  0  0  0
  -12.8142  -26.6244   31.0081 H   0  0  0  0  0  0  0  0  0  0  0  0
  1  2  1  0
  2  3  1  0
  3  4  1  0
  4  5  2  0
  4  6  1  0
  6  7  2  0
  7  8  1  0
  8  9  2  0
  9 10  1  0
 10 11  2  0
  3 12  1  0
 12 13  1  0
 12 14  1  0
 14 15  1  0
 15 16  1  0
 16 17  2  0
 16 18  1  0
 18 19  1  0
 19 20  2  0
 20 21  1  0
 21 22  2  0
 22 23  1  0
 11  6  1  0
 23 19  1  0
  1 24  1  0
  1 25  1  0
  1 26  1  0
  2 27  1  0
  2 28  1  0
  7 29  1  0
  8 30  1  0
 10 31  1  0
 11 32  1  0
 12 33  1  0
 13 34  1  0
 13 35  1  0
 13 36  1  0
 14 37  1  0
 14 38  1  0
 15 39  1  0
 18 40  1  0
 18 41  1  0
 21 42  1  0
 22 43  1  0
 23 44  1  0
M  END
>  <Energy>  (1149) 
796.62948460247105

>  <compound_id>  (1149) 
23240

>  <target_id>  (1149) 
1

>  <reference_id>  (1149) 
48

>  <inspiration_ids>  (1149) 
[48, 115]

>  <energy_score>  (1149) 
737.0663871839138

>  <distance_score>  (1149) 
11.925909462938044

>  <path>  (1149) 
/opt/xchem-fragalysis-2/maxwin/BulkDock/SCRATCH/511024/C23240-P48/C23240-P48.minimised.mol

>  <scratch_subdir>  (1149) 
/opt/xchem-fragalysis-2/maxwin/BulkDock/SCRATCH/511024/C23240-P48

>  <fragmenstein_runtime>  (1149) 
17.86392116546631

>  <fragmenstein_outcome>  (1149) 
too moved

>  <fragmenstein_mode>  (1149) 
expansion

>  <fragmenstein_error>  (1149) 


$$$$
C23240-P115
     RDKit          3D

 44 45  0  0  0  0  0  0  0  0999 V2000
   -8.4678  -20.3730   11.4946 C   0  0  0  0  0  0  0  0  0  0  0  0
  -10.0707  -20.6320   12.3663 C   0  0  0  0  0  0  0  0  0  0  0  0
  -10.0953  -19.3409   12.0885 N   0  0  0  0  0  0  0  0  0  0  0  0
  -10.7707  -18.0714   13.2033 C   0  0  0  0  0  0  0  0  0  0  0  0
  -11.3260  -18.2303   14.1869 O   0  0  0  0  0  0  0  0  0  0  0  0
  -10.7760  -16.1676   12.7761 C   0  0  0  0  0  0  0  0  0  0  0  0
  -11.5899  -15.4414   11.6668 C   0  0  0  0  0  0  0  0  0  0  0  0
  -12.5897  -14.4376   11.8032 C   0  0  0  0  0  0  0  0  0  0  0  0
  -12.4955  -13.5690   12.7900 N   0  0  0  0  0  0  0  0  0  0  0  0
  -11.4522  -13.8176   13.5858 C   0  0  0  0  0  0  0  0  0  0  0  0
  -10.6681  -15.0347   13.5910 C   0  0  0  0  0  0  0  0  0  0  0  0
  -10.1791  -21.4005   12.0180 C   0  0  0  0  0  0  0  0  0  0  0  0
   -9.2295  -22.5445   13.1174 C   0  0  0  0  0  0  0  0  0  0  0  0
  -11.1934  -22.7462   11.5246 C   0  0  0  0  0  0  0  0  0  0  0  0
  -12.0521  -23.5179   12.4182 N   0  0  0  0  0  0  0  0  0  0  0  0
  -11.8583  -24.8320   13.0352 C   0  0  0  0  0  0  0  0  0  0  0  0
  -10.9118  -25.5667   13.0240 O   0  0  0  0  0  0  0  0  0  0  0  0
  -13.1723  -25.3252   13.7106 C   0  0  0  0  0  0  0  0  0  0  0  0
  -13.0146  -25.9190   15.0984 C   0  0  0  0  0  0  0  0  0  0  0  0
  -12.1778  -26.8449   15.5278 N   0  0  0  0  0  0  0  0  0  0  0  0
  -12.4560  -27.0445   16.8503 C   0  0  0  0  0  0  0  0  0  0  0  0
  -13.4911  -26.2364   17.2367 C   0  0  0  0  0  0  0  0  0  0  0  0
  -13.8583  -25.5490   16.1243 N   0  0  0  0  0  0  0  0  0  0  0  0
   -8.6821  -20.1815   10.4350 H   0  0  0  0  0  0  0  0  0  0  0  0
   -7.7123  -19.6889   11.8505 H   0  0  0  0  0  0  0  0  0  0  0  0
   -8.0341  -21.3579   11.5770 H   0  0  0  0  0  0  0  0  0  0  0  0
  -10.1479  -20.6972   13.6318 H   0  0  0  0  0  0  0  0  0  0  0  0
  -11.1726  -20.2541   12.7802 H   0  0  0  0  0  0  0  0  0  0  0  0
  -10.8723  -14.7454   11.1484 H   0  0  0  0  0  0  0  0  0  0  0  0
  -13.3071  -14.2322   11.0171 H   0  0  0  0  0  0  0  0  0  0  0  0
  -11.2032  -13.0125   14.2755 H   0  0  0  0  0  0  0  0  0  0  0  0
   -9.7897  -14.8929   14.1931 H   0  0  0  0  0  0  0  0  0  0  0  0
   -9.7788  -21.6454   10.8811 H   0  0  0  0  0  0  0  0  0  0  0  0
   -8.2051  -22.2272   13.3128 H   0  0  0  0  0  0  0  0  0  0  0  0
   -9.1493  -23.5128   12.6205 H   0  0  0  0  0  0  0  0  0  0  0  0
   -9.7723  -22.6806   14.0573 H   0  0  0  0  0  0  0  0  0  0  0  0
  -11.5383  -22.6854   10.4903 H   0  0  0  0  0  0  0  0  0  0  0  0
  -10.4483  -23.5218   11.2762 H   0  0  0  0  0  0  0  0  0  0  0  0
  -13.0068  -23.2214   12.5644 H   0  0  0  0  0  0  0  0  0  0  0  0
  -13.5936  -26.0941   13.0515 H   0  0  0  0  0  0  0  0  0  0  0  0
  -13.9072  -24.5133   13.7535 H   0  0  0  0  0  0  0  0  0  0  0  0
  -11.8758  -27.7342   17.4467 H   0  0  0  0  0  0  0  0  0  0  0  0
  -13.9389  -26.0365   18.1903 H   0  0  0  0  0  0  0  0  0  0  0  0
  -14.5730  -24.8362   16.0714 H   0  0  0  0  0  0  0  0  0  0  0  0
  1  2  1  0
  2  3  1  0
  3  4  1  0
  4  5  2  0
  4  6  1  0
  6  7  2  0
  7  8  1  0
  8  9  2  0
  9 10  1  0
 10 11  2  0
  3 12  1  0
 12 13  1  0
 12 14  1  0
 14 15  1  0
 15 16  1  0
 16 17  2  0
 16 18  1  0
 18 19  1  0
 19 20  2  0
 20 21  1  0
 21 22  2  0
 22 23  1  0
 11  6  1  0
 23 19  1  0
  1 24  1  0
  1 25  1  0
  1 26  1  0
  2 27  1  0
  2 28  1  0
  7 29  1  0
  8 30  1  0
 10 31  1  0
 11 32  1  0
 12 33  1  0
 13 34  1  0
 13 35  1  0
 13 36  1  0
 14 37  1  0
 14 38  1  0
 15 39  1  0
 18 40  1  0
 18 41  1  0
 21 42  1  0
 22 43  1  0
 23 44  1  0
M  END
>  <Energy>  (1150) 
1199.9354349922692

>  <compound_id>  (1150) 
23240

>  <target_id>  (1150) 
1

>  <reference_id>  (1150) 
115

>  <inspiration_ids>  (1150) 
[48, 115]

>  <energy_score>  (1150) 
1140.3723375736968

>  <distance_score>  (1150) 
9.702225251828182

>  <path>  (1150) 
/opt/xchem-fragalysis-2/maxwin/BulkDock/SCRATCH/511024/C23240-P115/C23240-P115.minimised.mol

>  <scratch_subdir>  (1150) 
/opt/xchem-fragalysis-2/maxwin/BulkDock/SCRATCH/511024/C23240-P115

>  <fragmenstein_runtime>  (1150) 
25.280967950820923

>  <fragmenstein_outcome>  (1150) 
too moved

>  <fragmenstein_mode>  (1150) 
expansion

>  <fragmenstein_error>  (1150) 


$$$$
C23242-P48
     RDKit          3D

 40 42  0  0  0  0  0  0  0  0999 V2000
  -11.6149  -27.8295   18.8036 O   0  0  0  0  0  0  0  0  0  0  0  0
  -11.2923  -26.6806   19.0155 C   0  0  0  0  0  0  0  0  0  0  0  0
  -11.6200  -25.9033   17.8150 C   0  0  0  0  0  0  0  0  0  0  0  0
  -11.3210  -26.2763   16.5164 C   0  0  0  0  0  0  0  0  0  0  0  0
  -10.0614  -26.9765   16.0356 C   0  0  0  0  0  0  0  0  0  0  0  0
  -10.1467  -27.6637   14.6705 C   0  0  0  0  0  0  0  0  0  0  0  0
  -10.4800  -26.4830   13.3149 S   0  0  0  0  0  0  0  0  0  0  0  0
  -11.6452  -25.3694   14.1616 C   0  0  0  0  0  0  0  0  0  0  0  0
  -12.3071  -26.0243   15.3775 C   0  0  0  0  0  0  0  0  0  0  0  0
  -10.3766  -25.8044   20.6609 N   0  0  0  0  0  0  0  0  0  0  0  0
  -10.0922  -26.8482   22.4509 C   0  0  0  0  0  0  0  0  0  0  0  0
  -10.8224  -27.1708   24.4510 C   0  0  0  0  0  0  0  0  0  0  0  0
  -11.9418  -27.7286   24.9873 N   0  0  0  0  0  0  0  0  0  0  0  0
  -12.1792  -27.4105   26.3109 C   0  0  0  0  0  0  0  0  0  0  0  0
  -11.3740  -26.3945   26.6869 C   0  0  0  0  0  0  0  0  0  0  0  0
  -10.6212  -26.1270   25.5863 N   0  0  0  0  0  0  0  0  0  0  0  0
   -8.1939  -25.7048   20.3122 C   0  0  0  0  0  0  0  0  0  0  0  0
   -6.6587  -26.2038   19.3792 C   0  0  0  0  0  0  0  0  0  0  0  0
   -5.9952  -27.6308   18.6248 N   0  0  0  0  0  0  0  0  0  0  0  0
   -5.8468  -28.7421   19.3995 C   0  0  0  0  0  0  0  0  0  0  0  0
   -5.6906  -28.3457   20.6262 C   0  0  0  0  0  0  0  0  0  0  0  0
   -5.0966  -29.4589   22.0161 Br  0  0  0  0  0  0  0  0  0  0  0  0
   -6.7522  -27.2476   20.7104 C   0  0  0  0  0  0  0  0  0  0  0  0
  -12.7237  -25.7584   17.8724 H   0  0  0  0  0  0  0  0  0  0  0  0
   -9.7756  -27.7280   16.7589 H   0  0  0  0  0  0  0  0  0  0  0  0
   -9.2475  -26.2538   15.9824 H   0  0  0  0  0  0  0  0  0  0  0  0
  -10.9235  -28.4360   14.6677 H   0  0  0  0  0  0  0  0  0  0  0  0
   -9.1970  -28.1619   14.4491 H   0  0  0  0  0  0  0  0  0  0  0  0
  -11.0929  -24.4686   14.4453 H   0  0  0  0  0  0  0  0  0  0  0  0
  -12.4101  -25.0733   13.4367 H   0  0  0  0  0  0  0  0  0  0  0  0
  -12.7666  -26.9793   15.0881 H   0  0  0  0  0  0  0  0  0  0  0  0
  -13.1510  -25.4143   15.7131 H   0  0  0  0  0  0  0  0  0  0  0  0
  -10.4270  -27.7689   21.6448 H   0  0  0  0  0  0  0  0  0  0  0  0
  -10.7792  -27.5786   22.6196 H   0  0  0  0  0  0  0  0  0  0  0  0
  -12.9576  -27.9043   26.8799 H   0  0  0  0  0  0  0  0  0  0  0  0
  -11.2843  -25.8230   27.6014 H   0  0  0  0  0  0  0  0  0  0  0  0
   -9.9726  -25.3476   25.5138 H   0  0  0  0  0  0  0  0  0  0  0  0
   -6.3252  -25.4185   18.7116 H   0  0  0  0  0  0  0  0  0  0  0  0
   -5.8006  -29.7308   18.9735 H   0  0  0  0  0  0  0  0  0  0  0  0
   -6.9532  -27.8321   21.7719 H   0  0  0  0  0  0  0  0  0  0  0  0
  1  2  2  0
  2  3  1  0
  3  4  2  3
  4  5  1  0
  5  6  1  0
  6  7  1  0
  7  8  1  0
  8  9  1  0
  2 10  1  0
 10 11  1  0
 11 12  1  0
 12 13  2  0
 13 14  1  0
 14 15  2  0
 15 16  1  0
 10 17  1  0
 17 18  2  0
 18 19  1  0
 19 20  2  0
 20 21  1  0
 21 22  1  0
 21 23  2  0
  9  4  1  0
 16 12  1  0
 23 17  1  0
  3 24  1  0
  5 25  1  0
  5 26  1  0
  6 27  1  0
  6 28  1  0
  8 29  1  0
  8 30  1  0
  9 31  1  0
  9 32  1  0
 11 33  1  0
 11 34  1  0
 14 35  1  0
 15 36  1  0
 16 37  1  0
 18 38  1  0
 20 39  1  0
 23 40  1  0
M  END
>  <Energy>  (1151) 
1525.3659582382004

>  <compound_id>  (1151) 
23242

>  <target_id>  (1151) 
1

>  <reference_id>  (1151) 
48

>  <inspiration_ids>  (1151) 
[48, 115]

>  <energy_score>  (1151) 
1406.9887203013686

>  <distance_score>  (1151) 
5.679235072702523

>  <path>  (1151) 
/opt/xchem-fragalysis-2/maxwin/BulkDock/SCRATCH/511024/C23242-P48/C23242-P48.minimised.mol

>  <scratch_subdir>  (1151) 
/opt/xchem-fragalysis-2/maxwin/BulkDock/SCRATCH/511024/C23242-P48

>  <fragmenstein_runtime>  (1151) 
9.326063394546509

>  <fragmenstein_outcome>  (1151) 
too moved

>  <fragmenstein_mode>  (1151) 
expansion

>  <fragmenstein_error>  (1151) 


$$$$
C23242-P115
     RDKit          3D

 40 42  0  0  0  0  0  0  0  0999 V2000
   -8.6484  -31.6636   21.9858 O   0  0  0  0  0  0  0  0  0  0  0  0
   -9.6726  -31.0476   21.8845 C   0  0  0  0  0  0  0  0  0  0  0  0
  -10.7359  -31.3426   20.8698 C   0  0  0  0  0  0  0  0  0  0  0  0
  -10.9743  -32.4874   20.1963 C   0  0  0  0  0  0  0  0  0  0  0  0
   -9.9558  -33.5881   20.0065 C   0  0  0  0  0  0  0  0  0  0  0  0
  -10.2809  -34.5604   18.8612 C   0  0  0  0  0  0  0  0  0  0  0  0
  -10.8524  -33.6969   17.3508 S   0  0  0  0  0  0  0  0  0  0  0  0
  -12.3540  -32.8980   18.0206 C   0  0  0  0  0  0  0  0  0  0  0  0
  -12.3377  -32.7136   19.5451 C   0  0  0  0  0  0  0  0  0  0  0  0
  -10.2142  -30.0018   22.6945 N   0  0  0  0  0  0  0  0  0  0  0  0
   -9.7021  -29.3769   24.0860 C   0  0  0  0  0  0  0  0  0  0  0  0
  -10.4300  -28.0623   25.0491 C   0  0  0  0  0  0  0  0  0  0  0  0
   -9.8434  -27.5181   26.0986 N   0  0  0  0  0  0  0  0  0  0  0  0
  -10.6471  -26.5387   26.6534 C   0  0  0  0  0  0  0  0  0  0  0  0
  -11.6419  -26.2499   25.7785 C   0  0  0  0  0  0  0  0  0  0  0  0
  -11.4749  -27.1788   24.7852 N   0  0  0  0  0  0  0  0  0  0  0  0
   -9.6878  -28.3685   22.0857 C   0  0  0  0  0  0  0  0  0  0  0  0
  -10.1692  -26.7450   20.9359 C   0  0  0  0  0  0  0  0  0  0  0  0
   -8.7964  -25.7401   19.9465 N   0  0  0  0  0  0  0  0  0  0  0  0
   -7.1034  -26.6305   19.3514 C   0  0  0  0  0  0  0  0  0  0  0  0
   -6.8879  -28.1202   20.4995 C   0  0  0  0  0  0  0  0  0  0  0  0
   -5.7452  -26.6917   22.2789 Br  0  0  0  0  0  0  0  0  0  0  0  0
   -8.0433  -28.9654   21.5883 C   0  0  0  0  0  0  0  0  0  0  0  0
  -11.5913  -30.7104   20.9729 H   0  0  0  0  0  0  0  0  0  0  0  0
   -9.8756  -34.1673   20.9343 H   0  0  0  0  0  0  0  0  0  0  0  0
   -8.9678  -33.1517   19.8164 H   0  0  0  0  0  0  0  0  0  0  0  0
  -11.0563  -35.2726   19.1649 H   0  0  0  0  0  0  0  0  0  0  0  0
   -9.3897  -35.1448   18.6103 H   0  0  0  0  0  0  0  0  0  0  0  0
  -12.4787  -31.9324   17.5199 H   0  0  0  0  0  0  0  0  0  0  0  0
  -13.2205  -33.5052   17.7371 H   0  0  0  0  0  0  0  0  0  0  0  0
  -12.7689  -33.6123   20.0083 H   0  0  0  0  0  0  0  0  0  0  0  0
  -13.0388  -31.9078   19.7980 H   0  0  0  0  0  0  0  0  0  0  0  0
   -8.6327  -29.5635   24.2472 H   0  0  0  0  0  0  0  0  0  0  0  0
  -10.0715  -30.1862   24.7474 H   0  0  0  0  0  0  0  0  0  0  0  0
  -10.3997  -26.0642   27.5952 H   0  0  0  0  0  0  0  0  0  0  0  0
  -12.4481  -25.5310   25.7913 H   0  0  0  0  0  0  0  0  0  0  0  0
  -12.1365  -27.3132   24.0515 H   0  0  0  0  0  0  0  0  0  0  0  0
  -10.8489  -26.0223   20.6793 H   0  0  0  0  0  0  0  0  0  0  0  0
   -6.4635  -26.0482   18.7856 H   0  0  0  0  0  0  0  0  0  0  0  0
   -7.5762  -29.8189   22.0881 H   0  0  0  0  0  0  0  0  0  0  0  0
  1  2  2  0
  2  3  1  0
  3  4  2  3
  4  5  1  0
  5  6  1  0
  6  7  1  0
  7  8  1  0
  8  9  1  0
  2 10  1  0
 10 11  1  0
 11 12  1  0
 12 13  2  0
 13 14  1  0
 14 15  2  0
 15 16  1  0
 10 17  1  0
 17 18  2  0
 18 19  1  0
 19 20  2  0
 20 21  1  0
 21 22  1  0
 21 23  2  0
  9  4  1  0
 16 12  1  0
 23 17  1  0
  3 24  1  0
  5 25  1  0
  5 26  1  0
  6 27  1  0
  6 28  1  0
  8 29  1  0
  8 30  1  0
  9 31  1  0
  9 32  1  0
 11 33  1  0
 11 34  1  0
 14 35  1  0
 15 36  1  0
 16 37  1  0
 18 38  1  0
 20 39  1  0
 23 40  1  0
M  END
>  <Energy>  (1152) 
899.76577681646154

>  <compound_id>  (1152) 
23242

>  <target_id>  (1152) 
1

>  <reference_id>  (1152) 
115

>  <inspiration_ids>  (1152) 
[48, 115]

>  <energy_score>  (1152) 
781.3885388795999

>  <distance_score>  (1152) 
9.681891834196314

>  <path>  (1152) 
/opt/xchem-fragalysis-2/maxwin/BulkDock/SCRATCH/511024/C23242-P115/C23242-P115.minimised.mol

>  <scratch_subdir>  (1152) 
/opt/xchem-fragalysis-2/maxwin/BulkDock/SCRATCH/511024/C23242-P115

>  <fragmenstein_runtime>  (1152) 
17.629089832305908

>  <fragmenstein_outcome>  (1152) 
too moved

>  <fragmenstein_mode>  (1152) 
expansion

>  <fragmenstein_error>  (1152) 


$$$$
C23243-P48
     RDKit          3D

 38 41  0  0  0  0  0  0  0  0999 V2000
  -10.7400  -26.9389   18.2337 O   0  0  0  0  0  0  0  0  0  0  0  0
  -11.2599  -26.4783   19.2089 C   0  0  0  0  0  0  0  0  0  0  0  0
  -12.9243  -26.0936   19.2336 N   0  0  0  0  0  0  0  0  0  0  0  0
  -13.9937  -26.3108   18.2431 C   0  0  0  0  0  0  0  0  0  0  0  0
  -13.7095  -27.4428   17.2058 C   0  0  0  0  0  0  0  0  0  0  0  0
  -13.5452  -26.3677   16.1676 C   0  0  0  0  0  0  0  0  0  0  0  0
  -12.2037  -26.1898   15.5119 C   0  0  0  0  0  0  0  0  0  0  0  0
  -12.9208  -25.9227   14.2349 N   0  0  0  0  0  0  0  0  0  0  0  0
  -14.1342  -26.5678   14.7958 C   0  0  0  0  0  0  0  0  0  0  0  0
  -14.1896  -25.3435   17.0725 C   0  0  0  0  0  0  0  0  0  0  0  0
  -10.1327  -26.0808   21.0758 C   0  0  0  0  0  0  0  0  0  0  0  0
   -8.7327  -24.7454   21.4479 C   0  0  0  0  0  0  0  0  0  0  0  0
   -8.7871  -23.7461   23.2424 C   0  0  0  0  0  0  0  0  0  0  0  0
   -9.8747  -24.3742   24.6755 N   0  0  0  0  0  0  0  0  0  0  0  0
  -10.8716  -25.9463   24.6285 C   0  0  0  0  0  0  0  0  0  0  0  0
  -11.2733  -26.4254   25.9536 C   0  0  0  0  0  0  0  0  0  0  0  0
  -11.9403  -27.5152   26.2672 N   0  0  0  0  0  0  0  0  0  0  0  0
  -12.1631  -27.4331   27.6241 C   0  0  0  0  0  0  0  0  0  0  0  0
  -11.6784  -26.2527   28.1318 C   0  0  0  0  0  0  0  0  0  0  0  0
  -11.1111  -25.6200   27.0623 N   0  0  0  0  0  0  0  0  0  0  0  0
  -10.4586  -26.9035   22.8261 C   0  0  0  0  0  0  0  0  0  0  0  0
  -13.1310  -25.6467   20.1110 H   0  0  0  0  0  0  0  0  0  0  0  0
  -14.9262  -26.5042   18.7870 H   0  0  0  0  0  0  0  0  0  0  0  0
  -14.5766  -28.0952   17.0432 H   0  0  0  0  0  0  0  0  0  0  0  0
  -12.8462  -28.0847   17.3970 H   0  0  0  0  0  0  0  0  0  0  0  0
  -11.5612  -25.3836   15.8577 H   0  0  0  0  0  0  0  0  0  0  0  0
  -11.5935  -27.1003   15.4627 H   0  0  0  0  0  0  0  0  0  0  0  0
  -13.0308  -24.9265   14.0430 H   0  0  0  0  0  0  0  0  0  0  0  0
  -14.2434  -27.6137   14.4861 H   0  0  0  0  0  0  0  0  0  0  0  0
  -15.0670  -26.0412   14.5733 H   0  0  0  0  0  0  0  0  0  0  0  0
  -15.2530  -25.1755   16.8525 H   0  0  0  0  0  0  0  0  0  0  0  0
  -13.7599  -24.3696   17.2321 H   0  0  0  0  0  0  0  0  0  0  0  0
   -7.9790  -24.4974   20.7124 H   0  0  0  0  0  0  0  0  0  0  0  0
   -8.1941  -22.8896   23.5116 H   0  0  0  0  0  0  0  0  0  0  0  0
  -12.6715  -28.2248   28.1609 H   0  0  0  0  0  0  0  0  0  0  0  0
  -11.6686  -25.8260   29.1257 H   0  0  0  0  0  0  0  0  0  0  0  0
  -10.6212  -24.7299   27.0503 H   0  0  0  0  0  0  0  0  0  0  0  0
  -10.7796  -26.0546   21.9054 H   0  0  0  0  0  0  0  0  0  0  0  0
  1  2  2  0
  2  3  1  0
  3  4  1  0
  4  5  1  0
  5  6  1  0
  6  7  1  0
  7  8  1  0
  8  9  1  0
  6 10  1  0
  2 11  1  0
 11 12  2  0
 12 13  1  0
 13 14  2  0
 14 15  1  0
 15 16  1  0
 16 17  2  0
 17 18  1  0
 18 19  2  0
 19 20  1  0
 15 21  2  0
 10  4  1  0
 21 11  1  0
  9  6  1  0
 20 16  1  0
  3 22  1  0
  4 23  1  0
  5 24  1  0
  5 25  1  0
  7 26  1  0
  7 27  1  0
  8 28  1  0
  9 29  1  0
  9 30  1  0
 10 31  1  0
 10 32  1  0
 12 33  1  0
 13 34  1  0
 18 35  1  0
 19 36  1  0
 20 37  1  0
 21 38  1  0
M  END
>  <Energy>  (1153) 
1079.9133743395528

>  <compound_id>  (1153) 
23243

>  <target_id>  (1153) 
1

>  <reference_id>  (1153) 
48

>  <inspiration_ids>  (1153) 
[48, 115]

>  <energy_score>  (1153) 
1030.335382145482

>  <distance_score>  (1153) 
5.99785802459238

>  <path>  (1153) 
/opt/xchem-fragalysis-2/maxwin/BulkDock/SCRATCH/511024/C23243-P48/C23243-P48.minimised.mol

>  <scratch_subdir>  (1153) 
/opt/xchem-fragalysis-2/maxwin/BulkDock/SCRATCH/511024/C23243-P48

>  <fragmenstein_runtime>  (1153) 
11.21283745765686

>  <fragmenstein_outcome>  (1153) 
too moved

>  <fragmenstein_mode>  (1153) 
expansion

>  <fragmenstein_error>  (1153) 


$$$$
C23243-P115
     RDKit          3D

 38 41  0  0  0  0  0  0  0  0999 V2000
  -12.1502  -27.9730   18.6053 O   0  0  0  0  0  0  0  0  0  0  0  0
  -11.3039  -27.1133   18.4663 C   0  0  0  0  0  0  0  0  0  0  0  0
  -10.8521  -26.5987   16.9858 N   0  0  0  0  0  0  0  0  0  0  0  0
  -11.2122  -27.0457   15.6393 C   0  0  0  0  0  0  0  0  0  0  0  0
  -10.4633  -26.3392   14.4708 C   0  0  0  0  0  0  0  0  0  0  0  0
  -11.8032  -26.2000   13.7954 C   0  0  0  0  0  0  0  0  0  0  0  0
  -12.0957  -24.9808   12.9671 C   0  0  0  0  0  0  0  0  0  0  0  0
  -11.9165  -25.8271   11.7604 N   0  0  0  0  0  0  0  0  0  0  0  0
  -12.0932  -27.0479   12.5827 C   0  0  0  0  0  0  0  0  0  0  0  0
  -12.5444  -26.4887   15.0756 C   0  0  0  0  0  0  0  0  0  0  0  0
  -10.4471  -26.5857   20.4341 C   0  0  0  0  0  0  0  0  0  0  0  0
   -9.1412  -25.2290   20.9177 C   0  0  0  0  0  0  0  0  0  0  0  0
   -9.1289  -24.2875   22.7635 C   0  0  0  0  0  0  0  0  0  0  0  0
  -10.3785  -24.8890   24.0336 N   0  0  0  0  0  0  0  0  0  0  0  0
  -11.5486  -26.3515   23.8076 C   0  0  0  0  0  0  0  0  0  0  0  0
  -11.6609  -26.6378   25.2539 C   0  0  0  0  0  0  0  0  0  0  0  0
  -10.7236  -27.1468   26.0391 N   0  0  0  0  0  0  0  0  0  0  0  0
  -10.9286  -26.5977   27.2891 C   0  0  0  0  0  0  0  0  0  0  0  0
  -12.0541  -25.8288   27.3118 C   0  0  0  0  0  0  0  0  0  0  0  0
  -12.5036  -25.8407   26.0236 N   0  0  0  0  0  0  0  0  0  0  0  0
  -11.2096  -27.3984   22.0553 C   0  0  0  0  0  0  0  0  0  0  0  0
  -10.1171  -25.9820   17.0978 H   0  0  0  0  0  0  0  0  0  0  0  0
  -11.1574  -28.1394   15.5652 H   0  0  0  0  0  0  0  0  0  0  0  0
   -9.7190  -26.9601   13.9631 H   0  0  0  0  0  0  0  0  0  0  0  0
   -9.9999  -25.3813   14.7175 H   0  0  0  0  0  0  0  0  0  0  0  0
  -13.1136  -24.5884   13.0729 H   0  0  0  0  0  0  0  0  0  0  0  0
  -11.3864  -24.1517   13.0383 H   0  0  0  0  0  0  0  0  0  0  0  0
  -12.6195  -25.6921   11.0364 H   0  0  0  0  0  0  0  0  0  0  0  0
  -11.3844  -27.8498   12.3578 H   0  0  0  0  0  0  0  0  0  0  0  0
  -13.1103  -27.4542   12.5360 H   0  0  0  0  0  0  0  0  0  0  0  0
  -13.3489  -27.2285   15.0083 H   0  0  0  0  0  0  0  0  0  0  0  0
  -12.9389  -25.6200   15.6064 H   0  0  0  0  0  0  0  0  0  0  0  0
   -8.4241  -25.0188   20.1369 H   0  0  0  0  0  0  0  0  0  0  0  0
   -8.4885  -23.4898   23.1249 H   0  0  0  0  0  0  0  0  0  0  0  0
  -10.2363  -26.7479   28.1063 H   0  0  0  0  0  0  0  0  0  0  0  0
  -12.4833  -25.2132   28.0839 H   0  0  0  0  0  0  0  0  0  0  0  0
  -13.1667  -25.1816   25.6454 H   0  0  0  0  0  0  0  0  0  0  0  0
  -10.5729  -28.3183   22.2093 H   0  0  0  0  0  0  0  0  0  0  0  0
  1  2  2  0
  2  3  1  0
  3  4  1  0
  4  5  1  0
  5  6  1  0
  6  7  1  0
  7  8  1  0
  8  9  1  0
  6 10  1  0
  2 11  1  0
 11 12  2  0
 12 13  1  0
 13 14  2  0
 14 15  1  0
 15 16  1  0
 16 17  2  0
 17 18  1  0
 18 19  2  0
 19 20  1  0
 15 21  2  0
 10  4  1  0
 21 11  1  0
  9  6  1  0
 20 16  1  0
  3 22  1  0
  4 23  1  0
  5 24  1  0
  5 25  1  0
  7 26  1  0
  7 27  1  0
  8 28  1  0
  9 29  1  0
  9 30  1  0
 10 31  1  0
 10 32  1  0
 12 33  1  0
 13 34  1  0
 18 35  1  0
 19 36  1  0
 20 37  1  0
 21 38  1  0
M  END
>  <Energy>  (1154) 
933.5769158669118

>  <compound_id>  (1154) 
23243

>  <target_id>  (1154) 
1

>  <reference_id>  (1154) 
115

>  <inspiration_ids>  (1154) 
[48, 115]

>  <energy_score>  (1154) 
883.9989236728184

>  <distance_score>  (1154) 
5.074418574710823

>  <path>  (1154) 
/opt/xchem-fragalysis-2/maxwin/BulkDock/SCRATCH/511024/C23243-P115/C23243-P115.minimised.mol

>  <scratch_subdir>  (1154) 
/opt/xchem-fragalysis-2/maxwin/BulkDock/SCRATCH/511024/C23243-P115

>  <fragmenstein_runtime>  (1154) 
16.5908145904541

>  <fragmenstein_outcome>  (1154) 
too moved

>  <fragmenstein_mode>  (1154) 
expansion

>  <fragmenstein_error>  (1154) 


$$$$
C23244-P48
     RDKit          3D

 36 39  0  0  0  0  0  0  0  0999 V2000
  -17.6104  -25.8024   20.9652 O   0  0  0  0  0  0  0  0  0  0  0  0
  -16.7726  -26.6559   21.0345 C   0  0  0  0  0  0  0  0  0  0  0  0
  -16.5274  -27.0923   22.6454 C   0  0  0  0  0  0  0  0  0  0  0  0
  -17.5620  -27.8462   23.1882 C   0  0  0  0  0  0  0  0  0  0  0  0
  -17.5489  -28.1454   24.5683 C   0  0  0  0  0  0  0  0  0  0  0  0
  -16.5910  -27.7959   25.4997 N   0  0  0  0  0  0  0  0  0  0  0  0
  -15.5789  -27.0105   25.0804 C   0  0  0  0  0  0  0  0  0  0  0  0
  -14.4005  -26.8541   26.1122 C   0  0  0  0  0  0  0  0  0  0  0  0
  -13.1783  -26.3415   25.9414 N   0  0  0  0  0  0  0  0  0  0  0  0
  -12.5297  -26.3616   27.1678 C   0  0  0  0  0  0  0  0  0  0  0  0
  -13.3308  -26.9405   28.1160 C   0  0  0  0  0  0  0  0  0  0  0  0
  -14.4761  -27.2963   27.4408 N   0  0  0  0  0  0  0  0  0  0  0  0
  -15.5798  -26.5881   23.6967 C   0  0  0  0  0  0  0  0  0  0  0  0
  -15.9910  -27.4515   19.8553 N   0  0  0  0  0  0  0  0  0  0  0  0
  -16.1875  -27.4048   18.2620 C   0  0  0  0  0  0  0  0  0  0  0  0
  -14.9039  -26.7413   17.8782 C   0  0  0  0  0  0  0  0  0  0  0  0
  -13.9791  -27.4033   16.8495 C   0  0  0  0  0  0  0  0  0  0  0  0
  -13.5284  -26.0120   16.3668 C   0  0  0  0  0  0  0  0  0  0  0  0
  -14.7597  -25.4265   17.1056 C   0  0  0  0  0  0  0  0  0  0  0  0
  -14.5500  -26.7671   19.3071 C   0  0  0  0  0  0  0  0  0  0  0  0
  -18.3889  -28.1834   22.5697 H   0  0  0  0  0  0  0  0  0  0  0  0
  -18.3689  -28.7305   24.9870 H   0  0  0  0  0  0  0  0  0  0  0  0
  -11.5340  -25.9512   27.2879 H   0  0  0  0  0  0  0  0  0  0  0  0
  -13.1981  -27.1434   29.1703 H   0  0  0  0  0  0  0  0  0  0  0  0
  -15.2941  -27.7592   27.8189 H   0  0  0  0  0  0  0  0  0  0  0  0
  -14.6925  -26.0272   23.4521 H   0  0  0  0  0  0  0  0  0  0  0  0
  -17.0948  -26.8331   18.0364 H   0  0  0  0  0  0  0  0  0  0  0  0
  -16.3186  -28.4327   17.9046 H   0  0  0  0  0  0  0  0  0  0  0  0
  -14.5139  -27.9702   16.0778 H   0  0  0  0  0  0  0  0  0  0  0  0
  -13.1797  -28.0369   17.2455 H   0  0  0  0  0  0  0  0  0  0  0  0
  -12.5554  -25.7344   16.7744 H   0  0  0  0  0  0  0  0  0  0  0  0
  -13.5198  -25.8708   15.2831 H   0  0  0  0  0  0  0  0  0  0  0  0
  -14.5156  -24.5561   17.7077 H   0  0  0  0  0  0  0  0  0  0  0  0
  -15.6037  -25.1973   16.4471 H   0  0  0  0  0  0  0  0  0  0  0  0
  -14.2260  -25.8356   19.7359 H   0  0  0  0  0  0  0  0  0  0  0  0
  -13.7585  -27.5048   19.4698 H   0  0  0  0  0  0  0  0  0  0  0  0
  1  2  2  0
  2  3  1  0
  3  4  2  0
  4  5  1  0
  5  6  2  0
  6  7  1  0
  7  8  1  0
  8  9  2  0
  9 10  1  0
 10 11  2  0
 11 12  1  0
  7 13  2  0
  2 14  1  0
 14 15  1  0
 15 16  1  0
 16 17  1  0
 17 18  1  0
 18 19  1  0
 16 20  1  0
 13  3  1  0
 20 14  1  0
 12  8  1  0
 19 16  1  0
  4 21  1  0
  5 22  1  0
 10 23  1  0
 11 24  1  0
 12 25  1  0
 13 26  1  0
 15 27  1  0
 15 28  1  0
 17 29  1  0
 17 30  1  0
 18 31  1  0
 18 32  1  0
 19 33  1  0
 19 34  1  0
 20 35  1  0
 20 36  1  0
M  END
>  <Energy>  (1155) 
137.2185568441009

>  <compound_id>  (1155) 
23244

>  <target_id>  (1155) 
1

>  <reference_id>  (1155) 
48

>  <inspiration_ids>  (1155) 
[48, 115]

>  <energy_score>  (1155) 
66.8483539830261

>  <distance_score>  (1155) 
7.127038161785912

>  <path>  (1155) 
/opt/xchem-fragalysis-2/maxwin/BulkDock/SCRATCH/511024/C23244-P48/C23244-P48.minimised.mol

>  <scratch_subdir>  (1155) 
/opt/xchem-fragalysis-2/maxwin/BulkDock/SCRATCH/511024/C23244-P48

>  <fragmenstein_runtime>  (1155) 
8.685778141021729

>  <fragmenstein_outcome>  (1155) 
too moved

>  <fragmenstein_mode>  (1155) 
expansion

>  <fragmenstein_error>  (1155) 


$$$$
C23244-P115
     RDKit          3D

 36 39  0  0  0  0  0  0  0  0999 V2000
  -12.2535  -29.1132   18.6609 O   0  0  0  0  0  0  0  0  0  0  0  0
  -12.4679  -30.1609   18.1854 C   0  0  0  0  0  0  0  0  0  0  0  0
  -12.1838  -31.4204   19.3652 C   0  0  0  0  0  0  0  0  0  0  0  0
  -12.9693  -32.5439   19.4095 C   0  0  0  0  0  0  0  0  0  0  0  0
  -12.9705  -33.2701   20.6250 C   0  0  0  0  0  0  0  0  0  0  0  0
  -12.3082  -32.9915   21.8217 N   0  0  0  0  0  0  0  0  0  0  0  0
  -11.4983  -31.9151   21.8947 C   0  0  0  0  0  0  0  0  0  0  0  0
  -10.9240  -31.5361   23.3961 C   0  0  0  0  0  0  0  0  0  0  0  0
  -11.4920  -31.8098   24.5860 N   0  0  0  0  0  0  0  0  0  0  0  0
  -10.7850  -31.1535   25.5768 C   0  0  0  0  0  0  0  0  0  0  0  0
   -9.8103  -30.3768   25.0225 C   0  0  0  0  0  0  0  0  0  0  0  0
   -9.8228  -30.7107   23.6861 N   0  0  0  0  0  0  0  0  0  0  0  0
  -11.3990  -31.1662   20.6666 C   0  0  0  0  0  0  0  0  0  0  0  0
  -13.0246  -30.5212   16.8135 N   0  0  0  0  0  0  0  0  0  0  0  0
  -13.5685  -29.6218   15.6792 C   0  0  0  0  0  0  0  0  0  0  0  0
  -12.1871  -29.2465   15.2505 C   0  0  0  0  0  0  0  0  0  0  0  0
  -11.7479  -27.8681   15.7605 C   0  0  0  0  0  0  0  0  0  0  0  0
  -11.0586  -27.6090   14.4079 C   0  0  0  0  0  0  0  0  0  0  0  0
  -11.9367  -28.7516   13.8266 C   0  0  0  0  0  0  0  0  0  0  0  0
  -11.8571  -30.6915   15.7322 C   0  0  0  0  0  0  0  0  0  0  0  0
  -13.6252  -32.8246   18.5947 H   0  0  0  0  0  0  0  0  0  0  0  0
  -13.5967  -34.1615   20.7001 H   0  0  0  0  0  0  0  0  0  0  0  0
  -11.0521  -31.2669   26.6192 H   0  0  0  0  0  0  0  0  0  0  0  0
   -9.0577  -29.7176   25.4182 H   0  0  0  0  0  0  0  0  0  0  0  0
   -9.1996  -30.3440   22.9848 H   0  0  0  0  0  0  0  0  0  0  0  0
  -10.7616  -30.2878   20.7191 H   0  0  0  0  0  0  0  0  0  0  0  0
  -14.1676  -30.2100   14.9718 H   0  0  0  0  0  0  0  0  0  0  0  0
  -14.2002  -28.8246   16.0847 H   0  0  0  0  0  0  0  0  0  0  0  0
  -12.5766  -27.1686   15.9365 H   0  0  0  0  0  0  0  0  0  0  0  0
  -11.1029  -27.8040   16.6194 H   0  0  0  0  0  0  0  0  0  0  0  0
   -9.9877  -27.8397   14.4116 H   0  0  0  0  0  0  0  0  0  0  0  0
  -11.2159  -26.6187   13.9740 H   0  0  0  0  0  0  0  0  0  0  0  0
  -11.4051  -29.4446   13.1683 H   0  0  0  0  0  0  0  0  0  0  0  0
  -12.8351  -28.3944   13.3101 H   0  0  0  0  0  0  0  0  0  0  0  0
  -10.8459  -30.8295   16.0900 H   0  0  0  0  0  0  0  0  0  0  0  0
  -12.1076  -31.5091   15.0439 H   0  0  0  0  0  0  0  0  0  0  0  0
  1  2  2  0
  2  3  1  0
  3  4  2  0
  4  5  1  0
  5  6  2  0
  6  7  1  0
  7  8  1  0
  8  9  2  0
  9 10  1  0
 10 11  2  0
 11 12  1  0
  7 13  2  0
  2 14  1  0
 14 15  1  0
 15 16  1  0
 16 17  1  0
 17 18  1  0
 18 19  1  0
 16 20  1  0
 13  3  1  0
 20 14  1  0
 12  8  1  0
 19 16  1  0
  4 21  1  0
  5 22  1  0
 10 23  1  0
 11 24  1  0
 12 25  1  0
 13 26  1  0
 15 27  1  0
 15 28  1  0
 17 29  1  0
 17 30  1  0
 18 31  1  0
 18 32  1  0
 19 33  1  0
 19 34  1  0
 20 35  1  0
 20 36  1  0
M  END
>  <Energy>  (1156) 
137.64400573738411

>  <compound_id>  (1156) 
23244

>  <target_id>  (1156) 
1

>  <reference_id>  (1156) 
115

>  <inspiration_ids>  (1156) 
[48, 115]

>  <energy_score>  (1156) 
67.27380287631081

>  <distance_score>  (1156) 
7.524974305624046

>  <path>  (1156) 
/opt/xchem-fragalysis-2/maxwin/BulkDock/SCRATCH/511024/C23244-P115/C23244-P115.minimised.mol

>  <scratch_subdir>  (1156) 
/opt/xchem-fragalysis-2/maxwin/BulkDock/SCRATCH/511024/C23244-P115

>  <fragmenstein_runtime>  (1156) 
11.11890172958374

>  <fragmenstein_outcome>  (1156) 
too moved

>  <fragmenstein_mode>  (1156) 
expansion

>  <fragmenstein_error>  (1156) 


$$$$
C23245-P48
     RDKit          3D

 34 37  0  0  0  0  0  0  0  0999 V2000
  -10.4855  -24.9034   26.0496 Br  0  0  0  0  0  0  0  0  0  0  0  0
  -11.4171  -26.4640   24.9914 C   0  0  0  0  0  0  0  0  0  0  0  0
  -12.3407  -26.8309   26.0453 C   0  0  0  0  0  0  0  0  0  0  0  0
  -11.7907  -27.7050   26.8937 C   0  0  0  0  0  0  0  0  0  0  0  0
  -10.5843  -28.0478   26.3756 C   0  0  0  0  0  0  0  0  0  0  0  0
   -9.9877  -27.8216   24.8647 N   0  0  0  0  0  0  0  0  0  0  0  0
  -10.6612  -27.4005   23.6503 C   0  0  0  0  0  0  0  0  0  0  0  0
  -10.5767  -28.0199   21.6805 N   0  0  0  0  0  0  0  0  0  0  0  0
  -10.4361  -29.9725   21.4566 C   0  0  0  0  0  0  0  0  0  0  0  0
  -11.4646  -30.1312   20.0100 C   0  0  0  0  0  0  0  0  0  0  0  0
  -11.7171  -28.2565   19.9251 C   0  0  0  0  0  0  0  0  0  0  0  0
  -13.3113  -28.0016   19.3129 C   0  0  0  0  0  0  0  0  0  0  0  0
  -12.8370  -28.0140   17.8461 C   0  0  0  0  0  0  0  0  0  0  0  0
  -13.5870  -27.0678   16.8367 C   0  0  0  0  0  0  0  0  0  0  0  0
  -14.5800  -26.2699   17.1646 N   0  0  0  0  0  0  0  0  0  0  0  0
  -14.9162  -25.6093   16.0112 C   0  0  0  0  0  0  0  0  0  0  0  0
  -14.0831  -25.9739   14.9819 C   0  0  0  0  0  0  0  0  0  0  0  0
  -13.2247  -26.8889   15.5236 N   0  0  0  0  0  0  0  0  0  0  0  0
  -11.5681  -27.3772   18.3051 C   0  0  0  0  0  0  0  0  0  0  0  0
  -13.0899  -26.1364   26.4253 H   0  0  0  0  0  0  0  0  0  0  0  0
  -12.1350  -27.9362   27.8878 H   0  0  0  0  0  0  0  0  0  0  0  0
   -9.9004  -28.6339   27.0098 H   0  0  0  0  0  0  0  0  0  0  0  0
   -9.3862  -30.3419   21.5322 H   0  0  0  0  0  0  0  0  0  0  0  0
  -10.9268  -30.6734   22.1520 H   0  0  0  0  0  0  0  0  0  0  0  0
  -11.2078  -30.9637   19.3648 H   0  0  0  0  0  0  0  0  0  0  0  0
  -12.4233  -30.6080   20.2984 H   0  0  0  0  0  0  0  0  0  0  0  0
  -13.7907  -27.0466   19.5701 H   0  0  0  0  0  0  0  0  0  0  0  0
  -14.0752  -28.7796   19.3073 H   0  0  0  0  0  0  0  0  0  0  0  0
  -12.7069  -29.0235   17.4397 H   0  0  0  0  0  0  0  0  0  0  0  0
  -15.7349  -24.9017   15.9811 H   0  0  0  0  0  0  0  0  0  0  0  0
  -14.0264  -25.6683   13.9463 H   0  0  0  0  0  0  0  0  0  0  0  0
  -12.4676  -27.3584   15.0451 H   0  0  0  0  0  0  0  0  0  0  0  0
  -11.6980  -26.3037   18.3964 H   0  0  0  0  0  0  0  0  0  0  0  0
  -10.7616  -27.5559   17.5840 H   0  0  0  0  0  0  0  0  0  0  0  0
  1  2  1  0
  2  3  2  0
  3  4  1  0
  4  5  2  0
  5  6  1  0
  6  7  2  0
  7  8  1  0
  8  9  1  0
  9 10  1  0
 10 11  1  0
 11 12  1  0
 12 13  1  0
 13 14  1  0
 14 15  2  0
 15 16  1  0
 16 17  2  0
 17 18  1  0
 13 19  1  0
  7  2  1  0
 11  8  1  0
 18 14  1  0
 19 11  1  0
  3 20  1  0
  4 21  1  0
  5 22  1  0
  9 23  1  0
  9 24  1  0
 10 25  1  0
 10 26  1  0
 12 27  1  0
 12 28  1  0
 13 29  1  0
 16 30  1  0
 17 31  1  0
 18 32  1  0
 19 33  1  0
 19 34  1  0
M  END
>  <Energy>  (1157) 
859.91537769572824

>  <compound_id>  (1157) 
23245

>  <target_id>  (1157) 
1

>  <reference_id>  (1157) 
48

>  <inspiration_ids>  (1157) 
[48, 115]

>  <energy_score>  (1157) 
777.3807833760184

>  <distance_score>  (1157) 
6.982411669190754

>  <path>  (1157) 
/opt/xchem-fragalysis-2/maxwin/BulkDock/SCRATCH/511024/C23245-P48/C23245-P48.minimised.mol

>  <scratch_subdir>  (1157) 
/opt/xchem-fragalysis-2/maxwin/BulkDock/SCRATCH/511024/C23245-P48

>  <fragmenstein_runtime>  (1157) 
6.347835540771484

>  <fragmenstein_outcome>  (1157) 
too moved

>  <fragmenstein_mode>  (1157) 
expansion

>  <fragmenstein_error>  (1157) 


$$$$
C23245-P115
     RDKit          3D

 34 37  0  0  0  0  0  0  0  0999 V2000
  -10.6132  -27.1945   25.7256 Br  0  0  0  0  0  0  0  0  0  0  0  0
  -11.0673  -25.6109   24.4362 C   0  0  0  0  0  0  0  0  0  0  0  0
  -11.6380  -24.7707   25.4237 C   0  0  0  0  0  0  0  0  0  0  0  0
  -12.9428  -25.0592   25.7377 C   0  0  0  0  0  0  0  0  0  0  0  0
  -13.6021  -26.0365   25.0120 C   0  0  0  0  0  0  0  0  0  0  0  0
  -13.1277  -26.6828   23.8577 N   0  0  0  0  0  0  0  0  0  0  0  0
  -11.8093  -26.4091   23.1076 C   0  0  0  0  0  0  0  0  0  0  0  0
  -11.6170  -25.6768   20.9821 N   0  0  0  0  0  0  0  0  0  0  0  0
  -13.5594  -25.0915   20.6947 C   0  0  0  0  0  0  0  0  0  0  0  0
  -13.6803  -25.1742   19.3728 C   0  0  0  0  0  0  0  0  0  0  0  0
  -12.3129  -25.2035   19.1104 C   0  0  0  0  0  0  0  0  0  0  0  0
  -11.8477  -26.7084   17.8391 C   0  0  0  0  0  0  0  0  0  0  0  0
  -12.6912  -26.4841   16.6662 C   0  0  0  0  0  0  0  0  0  0  0  0
  -12.0774  -26.0758   15.2945 C   0  0  0  0  0  0  0  0  0  0  0  0
  -10.7915  -26.0351   15.0321 N   0  0  0  0  0  0  0  0  0  0  0  0
  -10.6879  -25.6934   13.7089 C   0  0  0  0  0  0  0  0  0  0  0  0
  -11.9330  -25.5524   13.1472 C   0  0  0  0  0  0  0  0  0  0  0  0
  -12.8102  -25.8104   14.1623 N   0  0  0  0  0  0  0  0  0  0  0  0
  -13.4613  -25.5556   17.4827 C   0  0  0  0  0  0  0  0  0  0  0  0
  -11.0284  -24.2022   26.1166 H   0  0  0  0  0  0  0  0  0  0  0  0
  -13.3788  -24.6377   26.6187 H   0  0  0  0  0  0  0  0  0  0  0  0
  -14.5886  -26.3674   25.3286 H   0  0  0  0  0  0  0  0  0  0  0  0
  -13.8672  -24.0830   21.0053 H   0  0  0  0  0  0  0  0  0  0  0  0
  -14.3630  -25.7517   21.1183 H   0  0  0  0  0  0  0  0  0  0  0  0
  -14.3001  -26.0512   19.2570 H   0  0  0  0  0  0  0  0  0  0  0  0
  -13.8583  -24.2422   18.8607 H   0  0  0  0  0  0  0  0  0  0  0  0
  -12.1706  -27.7182   18.1569 H   0  0  0  0  0  0  0  0  0  0  0  0
  -10.8663  -26.8239   17.4102 H   0  0  0  0  0  0  0  0  0  0  0  0
  -13.2837  -27.3892   16.4486 H   0  0  0  0  0  0  0  0  0  0  0  0
   -9.7241  -25.5681   13.2328 H   0  0  0  0  0  0  0  0  0  0  0  0
  -12.2556  -25.2960   12.1485 H   0  0  0  0  0  0  0  0  0  0  0  0
  -13.8182  -25.8057   14.0973 H   0  0  0  0  0  0  0  0  0  0  0  0
  -13.7100  -24.6332   16.9155 H   0  0  0  0  0  0  0  0  0  0  0  0
  -14.4747  -26.0172   17.5111 H   0  0  0  0  0  0  0  0  0  0  0  0
  1  2  1  0
  2  3  2  0
  3  4  1  0
  4  5  2  0
  5  6  1  0
  6  7  2  0
  7  8  1  0
  8  9  1  0
  9 10  1  0
 10 11  1  0
 11 12  1  0
 12 13  1  0
 13 14  1  0
 14 15  2  0
 15 16  1  0
 16 17  2  0
 17 18  1  0
 13 19  1  0
  7  2  1  0
 11  8  1  0
 18 14  1  0
 19 11  1  0
  3 20  1  0
  4 21  1  0
  5 22  1  0
  9 23  1  0
  9 24  1  0
 10 25  1  0
 10 26  1  0
 12 27  1  0
 12 28  1  0
 13 29  1  0
 16 30  1  0
 17 31  1  0
 18 32  1  0
 19 33  1  0
 19 34  1  0
M  END
>  <Energy>  (1158) 
1044.963062962727

>  <compound_id>  (1158) 
23245

>  <target_id>  (1158) 
1

>  <reference_id>  (1158) 
115

>  <inspiration_ids>  (1158) 
[48, 115]

>  <energy_score>  (1158) 
962.428468642999

>  <distance_score>  (1158) 
6.505573617186818

>  <path>  (1158) 
/opt/xchem-fragalysis-2/maxwin/BulkDock/SCRATCH/511024/C23245-P115/C23245-P115.minimised.mol

>  <scratch_subdir>  (1158) 
/opt/xchem-fragalysis-2/maxwin/BulkDock/SCRATCH/511024/C23245-P115

>  <fragmenstein_runtime>  (1158) 
7.787297964096069

>  <fragmenstein_outcome>  (1158) 
too moved

>  <fragmenstein_mode>  (1158) 
expansion

>  <fragmenstein_error>  (1158) 


$$$$
C23246-P48
     RDKit          3D

 44 47  0  0  0  0  0  0  0  0999 V2000
  -12.4603  -29.4866   29.1050 C   0  0  0  0  0  0  0  0  0  0  0  0
  -11.5833  -29.9024   27.9456 N   0  0  0  0  0  0  0  0  0  0  0  0
  -11.5021  -31.1625   28.7445 C   0  0  0  0  0  0  0  0  0  0  0  0
  -10.5908  -28.8933   27.6821 C   0  0  0  0  0  0  0  0  0  0  0  0
   -9.4803  -28.7662   28.1097 O   0  0  0  0  0  0  0  0  0  0  0  0
  -11.0119  -27.8765   26.5900 C   0  0  0  0  0  0  0  0  0  0  0  0
  -11.8346  -26.9363   27.0992 C   0  0  0  0  0  0  0  0  0  0  0  0
  -11.8597  -25.9472   26.2254 C   0  0  0  0  0  0  0  0  0  0  0  0
  -11.2188  -26.2135   24.9254 C   0  0  0  0  0  0  0  0  0  0  0  0
  -10.7145  -27.4238   23.7100 C   0  0  0  0  0  0  0  0  0  0  0  0
  -10.5700  -27.9939   21.7176 N   0  0  0  0  0  0  0  0  0  0  0  0
  -10.4239  -29.9492   21.4789 C   0  0  0  0  0  0  0  0  0  0  0  0
  -11.4324  -30.1225   20.0250 C   0  0  0  0  0  0  0  0  0  0  0  0
  -11.6980  -28.2366   19.9486 C   0  0  0  0  0  0  0  0  0  0  0  0
  -13.3003  -28.0099   19.3234 C   0  0  0  0  0  0  0  0  0  0  0  0
  -12.8234  -27.9908   17.8598 C   0  0  0  0  0  0  0  0  0  0  0  0
  -13.5887  -27.0334   16.8706 C   0  0  0  0  0  0  0  0  0  0  0  0
  -14.4228  -26.0901   17.2536 N   0  0  0  0  0  0  0  0  0  0  0  0
  -14.8345  -25.4724   16.1017 C   0  0  0  0  0  0  0  0  0  0  0  0
  -14.1975  -26.0098   15.0097 C   0  0  0  0  0  0  0  0  0  0  0  0
  -13.3860  -26.9879   15.5137 N   0  0  0  0  0  0  0  0  0  0  0  0
  -11.5637  -27.3437   18.3268 C   0  0  0  0  0  0  0  0  0  0  0  0
  -10.3859  -27.9579   25.0717 N   0  0  0  0  0  0  0  0  0  0  0  0
  -12.9567  -28.5601   28.8056 H   0  0  0  0  0  0  0  0  0  0  0  0
  -11.8799  -29.2138   29.9998 H   0  0  0  0  0  0  0  0  0  0  0  0
  -13.3248  -30.1339   29.3237 H   0  0  0  0  0  0  0  0  0  0  0  0
  -10.7895  -31.7772   28.1793 H   0  0  0  0  0  0  0  0  0  0  0  0
  -11.0125  -31.0669   29.7258 H   0  0  0  0  0  0  0  0  0  0  0  0
  -12.4240  -31.7611   28.7387 H   0  0  0  0  0  0  0  0  0  0  0  0
  -12.1354  -26.8266   28.1263 H   0  0  0  0  0  0  0  0  0  0  0  0
  -12.0803  -24.9297   26.5468 H   0  0  0  0  0  0  0  0  0  0  0  0
  -10.5235  -25.3122   25.0521 H   0  0  0  0  0  0  0  0  0  0  0  0
   -9.3707  -30.3119   21.5643 H   0  0  0  0  0  0  0  0  0  0  0  0
  -10.9148  -30.6649   22.1609 H   0  0  0  0  0  0  0  0  0  0  0  0
  -11.1240  -30.9625   19.4138 H   0  0  0  0  0  0  0  0  0  0  0  0
  -12.3953  -30.6060   20.2876 H   0  0  0  0  0  0  0  0  0  0  0  0
  -13.8027  -27.0694   19.5892 H   0  0  0  0  0  0  0  0  0  0  0  0
  -14.0428  -28.8079   19.3013 H   0  0  0  0  0  0  0  0  0  0  0  0
  -12.6795  -28.9912   17.4361 H   0  0  0  0  0  0  0  0  0  0  0  0
  -15.5584  -24.6671   16.1199 H   0  0  0  0  0  0  0  0  0  0  0  0
  -14.2465  -25.7859   13.9534 H   0  0  0  0  0  0  0  0  0  0  0  0
  -12.7612  -27.5817   14.9854 H   0  0  0  0  0  0  0  0  0  0  0  0
  -10.7556  -27.5088   17.6036 H   0  0  0  0  0  0  0  0  0  0  0  0
  -11.7095  -26.2743   18.4253 H   0  0  0  0  0  0  0  0  0  0  0  0
  1  2  1  0
  2  3  1  0
  2  4  1  0
  4  5  2  0
  4  6  1  0
  6  7  2  0
  7  8  1  0
  8  9  2  0
  9 10  1  0
 10 11  1  0
 11 12  1  0
 12 13  1  0
 13 14  1  0
 14 15  1  0
 15 16  1  0
 16 17  1  0
 17 18  2  0
 18 19  1  0
 19 20  2  0
 20 21  1  0
 16 22  1  0
 10 23  2  0
 23  6  1  0
 14 11  1  0
 21 17  1  0
 22 14  1  0
  1 24  1  0
  1 25  1  0
  1 26  1  0
  3 27  1  0
  3 28  1  0
  3 29  1  0
  7 30  1  0
  8 31  1  0
  9 32  1  0
 12 33  1  0
 12 34  1  0
 13 35  1  0
 13 36  1  0
 15 37  1  0
 15 38  1  0
 16 39  1  0
 19 40  1  0
 20 41  1  0
 21 42  1  0
 22 43  1  0
 22 44  1  0
M  END
>  <Energy>  (1159) 
941.80028046440646

>  <compound_id>  (1159) 
23246

>  <target_id>  (1159) 
1

>  <reference_id>  (1159) 
48

>  <inspiration_ids>  (1159) 
[48, 115]

>  <energy_score>  (1159) 
852.9059384357932

>  <distance_score>  (1159) 
6.9294562107117725

>  <path>  (1159) 
/opt/xchem-fragalysis-2/maxwin/BulkDock/SCRATCH/511024/C23246-P48/C23246-P48.minimised.mol

>  <scratch_subdir>  (1159) 
/opt/xchem-fragalysis-2/maxwin/BulkDock/SCRATCH/511024/C23246-P48

>  <fragmenstein_runtime>  (1159) 
12.063280820846558

>  <fragmenstein_outcome>  (1159) 
too moved

>  <fragmenstein_mode>  (1159) 
expansion

>  <fragmenstein_error>  (1159) 


$$$$
C23246-P115
     RDKit          3D

 44 47  0  0  0  0  0  0  0  0999 V2000
  -11.5910  -27.4686   27.4880 C   0  0  0  0  0  0  0  0  0  0  0  0
  -10.4764  -27.1088   26.4973 N   0  0  0  0  0  0  0  0  0  0  0  0
  -10.7627  -25.7198   27.0479 C   0  0  0  0  0  0  0  0  0  0  0  0
  -10.7456  -27.6970   25.1674 C   0  0  0  0  0  0  0  0  0  0  0  0
  -11.3432  -27.2212   24.2382 O   0  0  0  0  0  0  0  0  0  0  0  0
  -10.0234  -29.2966   24.6857 C   0  0  0  0  0  0  0  0  0  0  0  0
   -9.8348  -30.4355   25.3819 C   0  0  0  0  0  0  0  0  0  0  0  0
   -9.2485  -31.5008   24.6483 C   0  0  0  0  0  0  0  0  0  0  0  0
   -9.0266  -31.5731   23.2778 C   0  0  0  0  0  0  0  0  0  0  0  0
   -9.7904  -30.7011   22.6119 C   0  0  0  0  0  0  0  0  0  0  0  0
  -11.0971  -31.3884   22.2016 N   0  0  0  0  0  0  0  0  0  0  0  0
  -11.6874  -32.3752   23.1139 C   0  0  0  0  0  0  0  0  0  0  0  0
  -12.7003  -32.6981   22.0480 C   0  0  0  0  0  0  0  0  0  0  0  0
  -11.6845  -32.0656   21.0785 C   0  0  0  0  0  0  0  0  0  0  0  0
  -12.4857  -31.4560   19.9470 C   0  0  0  0  0  0  0  0  0  0  0  0
  -12.3466  -32.8085   19.1974 C   0  0  0  0  0  0  0  0  0  0  0  0
  -12.2651  -32.6349   17.6411 C   0  0  0  0  0  0  0  0  0  0  0  0
  -12.8279  -31.6274   17.0032 N   0  0  0  0  0  0  0  0  0  0  0  0
  -12.5236  -31.8100   15.6801 C   0  0  0  0  0  0  0  0  0  0  0  0
  -11.7744  -32.9483   15.5093 C   0  0  0  0  0  0  0  0  0  0  0  0
  -11.6208  -33.4662   16.7646 N   0  0  0  0  0  0  0  0  0  0  0  0
  -11.0796  -33.0777   20.1176 C   0  0  0  0  0  0  0  0  0  0  0  0
   -9.7580  -29.4668   23.2647 N   0  0  0  0  0  0  0  0  0  0  0  0
  -12.5846  -27.0897   27.2033 H   0  0  0  0  0  0  0  0  0  0  0  0
  -11.6931  -28.5522   27.5549 H   0  0  0  0  0  0  0  0  0  0  0  0
  -11.3537  -27.1968   28.5312 H   0  0  0  0  0  0  0  0  0  0  0  0
  -10.3392  -24.9924   26.3530 H   0  0  0  0  0  0  0  0  0  0  0  0
  -11.8088  -25.3722   27.0295 H   0  0  0  0  0  0  0  0  0  0  0  0
  -10.2565  -25.5584   28.0090 H   0  0  0  0  0  0  0  0  0  0  0  0
  -10.0773  -30.5834   26.4129 H   0  0  0  0  0  0  0  0  0  0  0  0
   -8.8827  -32.3808   25.1180 H   0  0  0  0  0  0  0  0  0  0  0  0
   -8.6884  -32.5028   22.8381 H   0  0  0  0  0  0  0  0  0  0  0  0
  -11.0356  -33.2249   23.3439 H   0  0  0  0  0  0  0  0  0  0  0  0
  -12.1011  -31.9433   24.0276 H   0  0  0  0  0  0  0  0  0  0  0  0
  -12.9205  -33.7641   21.9348 H   0  0  0  0  0  0  0  0  0  0  0  0
  -13.6476  -32.1627   22.1835 H   0  0  0  0  0  0  0  0  0  0  0  0
  -12.0288  -30.6162   19.4380 H   0  0  0  0  0  0  0  0  0  0  0  0
  -13.5277  -31.2191   20.1688 H   0  0  0  0  0  0  0  0  0  0  0  0
  -13.1670  -33.5016   19.4345 H   0  0  0  0  0  0  0  0  0  0  0  0
  -12.8597  -31.1134   14.9228 H   0  0  0  0  0  0  0  0  0  0  0  0
  -11.3547  -33.4187   14.6314 H   0  0  0  0  0  0  0  0  0  0  0  0
  -11.1371  -34.3224   16.9995 H   0  0  0  0  0  0  0  0  0  0  0  0
  -10.0783  -32.8230   19.7736 H   0  0  0  0  0  0  0  0  0  0  0  0
  -11.0186  -34.1079   20.4882 H   0  0  0  0  0  0  0  0  0  0  0  0
  1  2  1  0
  2  3  1  0
  2  4  1  0
  4  5  2  0
  4  6  1  0
  6  7  2  0
  7  8  1  0
  8  9  2  0
  9 10  1  0
 10 11  1  0
 11 12  1  0
 12 13  1  0
 13 14  1  0
 14 15  1  0
 15 16  1  0
 16 17  1  0
 17 18  2  0
 18 19  1  0
 19 20  2  0
 20 21  1  0
 16 22  1  0
 10 23  2  0
 23  6  1  0
 14 11  1  0
 21 17  1  0
 22 14  1  0
  1 24  1  0
  1 25  1  0
  1 26  1  0
  3 27  1  0
  3 28  1  0
  3 29  1  0
  7 30  1  0
  8 31  1  0
  9 32  1  0
 12 33  1  0
 12 34  1  0
 13 35  1  0
 13 36  1  0
 15 37  1  0
 15 38  1  0
 16 39  1  0
 19 40  1  0
 20 41  1  0
 21 42  1  0
 22 43  1  0
 22 44  1  0
M  END
>  <Energy>  (1160) 
259.19648877959548

>  <compound_id>  (1160) 
23246

>  <target_id>  (1160) 
1

>  <reference_id>  (1160) 
115

>  <inspiration_ids>  (1160) 
[48, 115]

>  <energy_score>  (1160) 
170.30214675097216

>  <distance_score>  (1160) 
10.23736221112672

>  <path>  (1160) 
/opt/xchem-fragalysis-2/maxwin/BulkDock/SCRATCH/511024/C23246-P115/C23246-P115.minimised.mol

>  <scratch_subdir>  (1160) 
/opt/xchem-fragalysis-2/maxwin/BulkDock/SCRATCH/511024/C23246-P115

>  <fragmenstein_runtime>  (1160) 
20.412237882614136

>  <fragmenstein_outcome>  (1160) 
too moved

>  <fragmenstein_mode>  (1160) 
expansion

>  <fragmenstein_error>  (1160) 


$$$$
C23249-P48
     RDKit          3D

 34 36  0  0  0  0  0  0  0  0999 V2000
  -10.8354  -27.3511   16.8605 C   0  0  0  0  0  0  0  0  0  0  0  0
  -11.8052  -27.1894   18.0883 C   0  0  0  0  0  0  0  0  0  0  0  0
  -12.5506  -28.4813   18.4949 C   0  0  0  0  0  0  0  0  0  0  0  0
  -11.0973  -26.4337   19.2589 N   0  0  0  0  0  0  0  0  0  0  0  0
  -10.2100  -26.1492   20.9043 C   0  0  0  0  0  0  0  0  0  0  0  0
  -10.5869  -24.8857   20.7349 N   0  0  0  0  0  0  0  0  0  0  0  0
   -9.0421  -24.6100   20.7832 N   0  0  0  0  0  0  0  0  0  0  0  0
   -8.0951  -23.9035   21.9367 C   0  0  0  0  0  0  0  0  0  0  0  0
   -8.2648  -23.2468   23.6446 C   0  0  0  0  0  0  0  0  0  0  0  0
   -8.7775  -24.0593   24.9647 C   0  0  0  0  0  0  0  0  0  0  0  0
   -8.2270  -23.6976   26.3392 C   0  0  0  0  0  0  0  0  0  0  0  0
   -7.0585  -22.6124   26.3625 C   0  0  0  0  0  0  0  0  0  0  0  0
   -6.5102  -22.1750   25.1301 C   0  0  0  0  0  0  0  0  0  0  0  0
   -7.0616  -22.4811   23.8740 N   0  0  0  0  0  0  0  0  0  0  0  0
   -8.3738  -24.7486   20.4935 S   0  0  0  0  0  0  0  0  0  0  0  0
  -12.9736  -26.3774   17.3987 C   0  0  0  0  0  0  0  0  0  0  0  0
  -13.1694  -26.2175   16.0981 N   0  0  0  0  0  0  0  0  0  0  0  0
  -14.3758  -25.5922   15.9554 C   0  0  0  0  0  0  0  0  0  0  0  0
  -14.9319  -25.3513   17.1840 C   0  0  0  0  0  0  0  0  0  0  0  0
  -14.0301  -25.8371   18.0872 N   0  0  0  0  0  0  0  0  0  0  0  0
   -9.8159  -27.6104   17.1029 H   0  0  0  0  0  0  0  0  0  0  0  0
  -10.7320  -26.4155   16.2975 H   0  0  0  0  0  0  0  0  0  0  0  0
  -11.2122  -28.1053   16.1588 H   0  0  0  0  0  0  0  0  0  0  0  0
  -12.8764  -29.0404   17.6083 H   0  0  0  0  0  0  0  0  0  0  0  0
  -11.9962  -29.1725   19.1184 H   0  0  0  0  0  0  0  0  0  0  0  0
  -13.4600  -28.2466   19.0558 H   0  0  0  0  0  0  0  0  0  0  0  0
  -11.8860  -25.8347   19.5441 H   0  0  0  0  0  0  0  0  0  0  0  0
   -9.7495  -24.5284   25.0648 H   0  0  0  0  0  0  0  0  0  0  0  0
   -8.8144  -23.9103   27.2326 H   0  0  0  0  0  0  0  0  0  0  0  0
   -6.7499  -22.1544   27.2876 H   0  0  0  0  0  0  0  0  0  0  0  0
   -5.6731  -21.4829   25.0943 H   0  0  0  0  0  0  0  0  0  0  0  0
  -14.7748  -25.3448   14.9796 H   0  0  0  0  0  0  0  0  0  0  0  0
  -15.8624  -24.8802   17.4676 H   0  0  0  0  0  0  0  0  0  0  0  0
  -14.1281  -25.8573   19.0900 H   0  0  0  0  0  0  0  0  0  0  0  0
  1  2  1  0
  2  3  1  0
  2  4  1  0
  4  5  1  0
  5  6  2  0
  6  7  1  0
  7  8  2  0
  8  9  1  0
  9 10  2  0
 10 11  1  0
 11 12  2  0
 12 13  1  0
 13 14  2  0
  8 15  1  0
  2 16  1  0
 16 17  2  0
 17 18  1  0
 18 19  2  0
 19 20  1  0
 15  5  1  0
 20 16  1  0
 14  9  1  0
  1 21  1  0
  1 22  1  0
  1 23  1  0
  3 24  1  0
  3 25  1  0
  3 26  1  0
  4 27  1  0
 10 28  1  0
 11 29  1  0
 12 30  1  0
 13 31  1  0
 18 32  1  0
 19 33  1  0
 20 34  1  0
M  END
>  <Energy>  (1161) 
807.53133731581329

>  <compound_id>  (1161) 
23249

>  <target_id>  (1161) 
1

>  <reference_id>  (1161) 
48

>  <inspiration_ids>  (1161) 
[48, 115]

>  <energy_score>  (1161) 
689.7350250160259

>  <distance_score>  (1161) 
7.753509884554177

>  <path>  (1161) 
/opt/xchem-fragalysis-2/maxwin/BulkDock/SCRATCH/511024/C23249-P48/C23249-P48.minimised.mol

>  <scratch_subdir>  (1161) 
/opt/xchem-fragalysis-2/maxwin/BulkDock/SCRATCH/511024/C23249-P48

>  <fragmenstein_runtime>  (1161) 
7.278337717056274

>  <fragmenstein_outcome>  (1161) 
too moved

>  <fragmenstein_mode>  (1161) 
expansion

>  <fragmenstein_error>  (1161) 


$$$$
C23249-P115
     RDKit          3D

 34 36  0  0  0  0  0  0  0  0999 V2000
  -13.3634  -28.4267   12.7705 C   0  0  0  0  0  0  0  0  0  0  0  0
  -13.0284  -28.3514   14.2852 C   0  0  0  0  0  0  0  0  0  0  0  0
  -14.1446  -27.5227   14.9621 C   0  0  0  0  0  0  0  0  0  0  0  0
  -13.0891  -29.7567   14.7897 N   0  0  0  0  0  0  0  0  0  0  0  0
  -12.9333  -30.0327   16.1235 C   0  0  0  0  0  0  0  0  0  0  0  0
  -12.5436  -29.1759   17.0335 N   0  0  0  0  0  0  0  0  0  0  0  0
  -12.3819  -29.7477   18.2692 N   0  0  0  0  0  0  0  0  0  0  0  0
  -12.8038  -30.9987   18.3791 C   0  0  0  0  0  0  0  0  0  0  0  0
  -12.8541  -31.7167   19.7040 C   0  0  0  0  0  0  0  0  0  0  0  0
  -11.8082  -31.6462   20.6375 C   0  0  0  0  0  0  0  0  0  0  0  0
  -11.9578  -32.1681   21.9246 C   0  0  0  0  0  0  0  0  0  0  0  0
  -13.1708  -32.7105   22.2959 C   0  0  0  0  0  0  0  0  0  0  0  0
  -14.1663  -32.7368   21.3358 C   0  0  0  0  0  0  0  0  0  0  0  0
  -14.0426  -32.2541   20.0658 N   0  0  0  0  0  0  0  0  0  0  0  0
  -13.2868  -31.6122   16.8332 S   0  0  0  0  0  0  0  0  0  0  0  0
  -11.6817  -27.6567   14.3782 C   0  0  0  0  0  0  0  0  0  0  0  0
  -10.5027  -28.2289   14.5402 N   0  0  0  0  0  0  0  0  0  0  0  0
   -9.5818  -27.2197   14.4604 C   0  0  0  0  0  0  0  0  0  0  0  0
  -10.1984  -26.0201   14.2081 C   0  0  0  0  0  0  0  0  0  0  0  0
  -11.5296  -26.3026   14.1729 N   0  0  0  0  0  0  0  0  0  0  0  0
  -12.6073  -29.0057   12.2256 H   0  0  0  0  0  0  0  0  0  0  0  0
  -13.4143  -27.4329   12.3101 H   0  0  0  0  0  0  0  0  0  0  0  0
  -14.3295  -28.9194   12.6070 H   0  0  0  0  0  0  0  0  0  0  0  0
  -14.3125  -26.5689   14.4483 H   0  0  0  0  0  0  0  0  0  0  0  0
  -15.0974  -28.0655   14.9581 H   0  0  0  0  0  0  0  0  0  0  0  0
  -13.9050  -27.2814   16.0035 H   0  0  0  0  0  0  0  0  0  0  0  0
  -12.4966  -30.3538   14.2174 H   0  0  0  0  0  0  0  0  0  0  0  0
  -10.8772  -31.1442   20.4167 H   0  0  0  0  0  0  0  0  0  0  0  0
  -11.1387  -32.1007   22.6368 H   0  0  0  0  0  0  0  0  0  0  0  0
  -13.3332  -33.1158   23.2874 H   0  0  0  0  0  0  0  0  0  0  0  0
  -15.1392  -33.1687   21.5599 H   0  0  0  0  0  0  0  0  0  0  0  0
   -8.5233  -27.4119   14.5819 H   0  0  0  0  0  0  0  0  0  0  0  0
   -9.8214  -25.0174   14.0666 H   0  0  0  0  0  0  0  0  0  0  0  0
  -12.2710  -25.6420   13.9878 H   0  0  0  0  0  0  0  0  0  0  0  0
  1  2  1  0
  2  3  1  0
  2  4  1  0
  4  5  1  0
  5  6  2  0
  6  7  1  0
  7  8  2  0
  8  9  1  0
  9 10  2  0
 10 11  1  0
 11 12  2  0
 12 13  1  0
 13 14  2  0
  8 15  1  0
  2 16  1  0
 16 17  2  0
 17 18  1  0
 18 19  2  0
 19 20  1  0
 15  5  1  0
 20 16  1  0
 14  9  1  0
  1 21  1  0
  1 22  1  0
  1 23  1  0
  3 24  1  0
  3 25  1  0
  3 26  1  0
  4 27  1  0
 10 28  1  0
 11 29  1  0
 12 30  1  0
 13 31  1  0
 18 32  1  0
 19 33  1  0
 20 34  1  0
M  END
>  <Energy>  (1162) 
47.416812378957445

>  <compound_id>  (1162) 
23249

>  <target_id>  (1162) 
1

>  <reference_id>  (1162) 
115

>  <inspiration_ids>  (1162) 
[48, 115]

>  <energy_score>  (1162) 
-70.37949992082561

>  <distance_score>  (1162) 
9.130008679923922

>  <path>  (1162) 
/opt/xchem-fragalysis-2/maxwin/BulkDock/SCRATCH/511024/C23249-P115/C23249-P115.minimised.mol

>  <scratch_subdir>  (1162) 
/opt/xchem-fragalysis-2/maxwin/BulkDock/SCRATCH/511024/C23249-P115

>  <fragmenstein_runtime>  (1162) 
10.851331949234009

>  <fragmenstein_outcome>  (1162) 
too moved

>  <fragmenstein_mode>  (1162) 
expansion

>  <fragmenstein_error>  (1162) 


$$$$
C52671-P48
     RDKit          3D

 38 41  0  0  0  0  0  0  0  0999 V2000
  -10.0267  -26.1799    9.7062 C   0  0  0  0  0  0  0  0  0  0  0  0
  -11.2981  -25.7898   10.1135 C   0  0  0  0  0  0  0  0  0  0  0  0
  -11.4294  -24.8989   11.1777 C   0  0  0  0  0  0  0  0  0  0  0  0
  -10.2771  -24.4007   11.7896 C   0  0  0  0  0  0  0  0  0  0  0  0
  -10.3565  -23.8549   13.1345 C   0  0  0  0  0  0  0  0  0  0  0  0
  -10.9348  -24.5856   14.0413 N   0  0  0  0  0  0  0  0  0  0  0  0
  -10.4740  -24.2143   15.2330 N   0  0  0  0  0  0  0  0  0  0  0  0
   -9.8627  -23.0205   15.3770 C   0  0  0  0  0  0  0  0  0  0  0  0
   -9.5483  -22.7654   16.7731 N   0  0  0  0  0  0  0  0  0  0  0  0
   -8.2357  -24.4022   16.9889 C   0  0  0  0  0  0  0  0  0  0  0  0
   -7.4719  -24.5653   18.9889 C   0  0  0  0  0  0  0  0  0  0  0  0
   -7.8136  -23.8775   20.9732 C   0  0  0  0  0  0  0  0  0  0  0  0
   -9.1734  -22.0790   20.6507 C   0  0  0  0  0  0  0  0  0  0  0  0
  -10.2569  -21.6465   21.9155 C   0  0  0  0  0  0  0  0  0  0  0  0
  -11.4313  -20.9642   21.7819 C   0  0  0  0  0  0  0  0  0  0  0  0
  -12.0234  -20.8463   22.9869 N   0  0  0  0  0  0  0  0  0  0  0  0
  -11.5530  -21.8961   23.6565 C   0  0  0  0  0  0  0  0  0  0  0  0
  -10.3455  -22.1782   23.1996 N   0  0  0  0  0  0  0  0  0  0  0  0
   -9.1675  -21.5811   18.5068 C   0  0  0  0  0  0  0  0  0  0  0  0
   -9.6465  -22.4175   13.7814 S   0  0  0  0  0  0  0  0  0  0  0  0
   -9.0309  -24.7468   11.3796 N   0  0  0  0  0  0  0  0  0  0  0  0
   -8.9330  -25.6384   10.3622 C   0  0  0  0  0  0  0  0  0  0  0  0
   -9.8878  -26.8762    8.8866 H   0  0  0  0  0  0  0  0  0  0  0  0
  -12.1790  -26.2010    9.6289 H   0  0  0  0  0  0  0  0  0  0  0  0
  -12.4117  -24.6592   11.5741 H   0  0  0  0  0  0  0  0  0  0  0  0
   -8.7078  -25.3543   16.5213 H   0  0  0  0  0  0  0  0  0  0  0  0
   -7.4216  -23.8897   16.4421 H   0  0  0  0  0  0  0  0  0  0  0  0
   -6.7678  -25.4685   19.1831 H   0  0  0  0  0  0  0  0  0  0  0  0
   -6.8858  -23.9381   18.3698 H   0  0  0  0  0  0  0  0  0  0  0  0
   -7.0197  -23.8970   21.7163 H   0  0  0  0  0  0  0  0  0  0  0  0
   -8.5550  -24.6568   21.0971 H   0  0  0  0  0  0  0  0  0  0  0  0
  -10.1166  -22.6347   20.5050 H   0  0  0  0  0  0  0  0  0  0  0  0
  -11.7402  -20.4530   20.9160 H   0  0  0  0  0  0  0  0  0  0  0  0
  -12.8002  -20.2676   23.2633 H   0  0  0  0  0  0  0  0  0  0  0  0
  -12.0592  -22.3139   24.5158 H   0  0  0  0  0  0  0  0  0  0  0  0
   -9.9448  -22.1987   18.8992 H   0  0  0  0  0  0  0  0  0  0  0  0
   -9.0003  -20.5392   18.2281 H   0  0  0  0  0  0  0  0  0  0  0  0
   -7.9185  -25.8937   10.0672 H   0  0  0  0  0  0  0  0  0  0  0  0
  1  2  2  0
  2  3  1  0
  3  4  2  0
  4  5  1  0
  5  6  2  0
  6  7  1  0
  7  8  2  0
  8  9  1  0
  9 10  1  0
 10 11  1  0
 11 12  1  0
 12 13  1  0
 13 14  1  0
 14 15  2  0
 15 16  1  0
 16 17  1  0
 17 18  2  0
 13 19  1  0
  8 20  1  0
  4 21  1  0
 21 22  2  0
 22  1  1  0
 20  5  1  0
 19  9  1  0
 18 14  1  0
  1 23  1  0
  2 24  1  0
  3 25  1  0
 10 26  1  0
 10 27  1  0
 11 28  1  0
 11 29  1  0
 12 30  1  0
 12 31  1  0
 13 32  1  0
 15 33  1  0
 16 34  1  0
 17 35  1  0
 19 36  1  0
 19 37  1  0
 22 38  1  0
M  END
>  <Energy>  (1163) 
989.02695753902378

>  <compound_id>  (1163) 
52671

>  <target_id>  (1163) 
1

>  <reference_id>  (1163) 
48

>  <inspiration_ids>  (1163) 
[48, 115]

>  <energy_score>  (1163) 
874.3394631782983

>  <distance_score>  (1163) 
6.488176013447041

>  <path>  (1163) 
/opt/xchem-fragalysis-2/maxwin/BulkDock/SCRATCH/511024/C52671-P48/C52671-P48.minimised.mol

>  <scratch_subdir>  (1163) 
/opt/xchem-fragalysis-2/maxwin/BulkDock/SCRATCH/511024/C52671-P48

>  <fragmenstein_runtime>  (1163) 
6.106132984161377

>  <fragmenstein_outcome>  (1163) 
too moved

>  <fragmenstein_mode>  (1163) 
expansion

>  <fragmenstein_error>  (1163) 


$$$$
C52671-P115
     RDKit          3D

 38 41  0  0  0  0  0  0  0  0999 V2000
   -9.7660  -27.2861    8.7499 C   0  0  0  0  0  0  0  0  0  0  0  0
   -8.9461  -26.3868    9.4192 C   0  0  0  0  0  0  0  0  0  0  0  0
   -9.2174  -26.0749   10.7504 C   0  0  0  0  0  0  0  0  0  0  0  0
  -10.3094  -26.6766   11.3777 C   0  0  0  0  0  0  0  0  0  0  0  0
  -10.6564  -26.4308   12.7853 C   0  0  0  0  0  0  0  0  0  0  0  0
  -11.1619  -27.3178   13.6215 N   0  0  0  0  0  0  0  0  0  0  0  0
  -11.3507  -26.7981   14.8880 N   0  0  0  0  0  0  0  0  0  0  0  0
  -11.0037  -25.5299   14.9908 C   0  0  0  0  0  0  0  0  0  0  0  0
  -11.1792  -24.7625   16.1562 N   0  0  0  0  0  0  0  0  0  0  0  0
   -9.9835  -23.0195   16.3404 C   0  0  0  0  0  0  0  0  0  0  0  0
  -10.0063  -22.5031   18.5004 C   0  0  0  0  0  0  0  0  0  0  0  0
  -10.2949  -24.2582   19.6952 C   0  0  0  0  0  0  0  0  0  0  0  0
  -12.2326  -24.7039   19.3813 C   0  0  0  0  0  0  0  0  0  0  0  0
  -12.4231  -22.9665   20.3574 C   0  0  0  0  0  0  0  0  0  0  0  0
  -12.9246  -22.6219   21.7508 C   0  0  0  0  0  0  0  0  0  0  0  0
  -12.0589  -21.8567   22.4871 N   0  0  0  0  0  0  0  0  0  0  0  0
  -11.0391  -21.6669   21.6679 C   0  0  0  0  0  0  0  0  0  0  0  0
  -11.3328  -22.0831   20.4627 N   0  0  0  0  0  0  0  0  0  0  0  0
  -12.0264  -25.8685   17.5886 C   0  0  0  0  0  0  0  0  0  0  0  0
  -10.4449  -24.8787   13.4935 S   0  0  0  0  0  0  0  0  0  0  0  0
  -11.1145  -27.5598   10.7308 N   0  0  0  0  0  0  0  0  0  0  0  0
  -10.8271  -27.8424    9.4421 C   0  0  0  0  0  0  0  0  0  0  0  0
   -9.5780  -27.5548    7.7163 H   0  0  0  0  0  0  0  0  0  0  0  0
   -8.0942  -25.9411    8.9136 H   0  0  0  0  0  0  0  0  0  0  0  0
   -8.5664  -25.3887   11.2829 H   0  0  0  0  0  0  0  0  0  0  0  0
  -10.0957  -22.1760   15.6112 H   0  0  0  0  0  0  0  0  0  0  0  0
   -9.1025  -23.3795   15.6926 H   0  0  0  0  0  0  0  0  0  0  0  0
   -9.6772  -21.8505   19.4062 H   0  0  0  0  0  0  0  0  0  0  0  0
   -9.2153  -21.6083   18.2574 H   0  0  0  0  0  0  0  0  0  0  0  0
  -10.9479  -24.9841   20.2014 H   0  0  0  0  0  0  0  0  0  0  0  0
   -9.4412  -24.9732   20.0280 H   0  0  0  0  0  0  0  0  0  0  0  0
  -13.1412  -25.0294   19.9056 H   0  0  0  0  0  0  0  0  0  0  0  0
  -13.7071  -23.0844   22.3384 H   0  0  0  0  0  0  0  0  0  0  0  0
  -12.1092  -21.5888   23.4605 H   0  0  0  0  0  0  0  0  0  0  0  0
  -10.0938  -21.2832   21.9921 H   0  0  0  0  0  0  0  0  0  0  0  0
  -13.0477  -25.9842   17.1920 H   0  0  0  0  0  0  0  0  0  0  0  0
  -11.4462  -26.7824   17.6424 H   0  0  0  0  0  0  0  0  0  0  0  0
  -11.4945  -28.5556    8.9665 H   0  0  0  0  0  0  0  0  0  0  0  0
  1  2  2  0
  2  3  1  0
  3  4  2  0
  4  5  1  0
  5  6  2  0
  6  7  1  0
  7  8  2  0
  8  9  1  0
  9 10  1  0
 10 11  1  0
 11 12  1  0
 12 13  1  0
 13 14  1  0
 14 15  2  0
 15 16  1  0
 16 17  1  0
 17 18  2  0
 13 19  1  0
  8 20  1  0
  4 21  1  0
 21 22  2  0
 22  1  1  0
 20  5  1  0
 19  9  1  0
 18 14  1  0
  1 23  1  0
  2 24  1  0
  3 25  1  0
 10 26  1  0
 10 27  1  0
 11 28  1  0
 11 29  1  0
 12 30  1  0
 12 31  1  0
 13 32  1  0
 15 33  1  0
 16 34  1  0
 17 35  1  0
 19 36  1  0
 19 37  1  0
 22 38  1  0
M  END
>  <Energy>  (1164) 
979.23910504921048

>  <compound_id>  (1164) 
52671

>  <target_id>  (1164) 
1

>  <reference_id>  (1164) 
115

>  <inspiration_ids>  (1164) 
[48, 115]

>  <energy_score>  (1164) 
864.551610688469

>  <distance_score>  (1164) 
6.755931966685539

>  <path>  (1164) 
/opt/xchem-fragalysis-2/maxwin/BulkDock/SCRATCH/511024/C52671-P115/C52671-P115.minimised.mol

>  <scratch_subdir>  (1164) 
/opt/xchem-fragalysis-2/maxwin/BulkDock/SCRATCH/511024/C52671-P115

>  <fragmenstein_runtime>  (1164) 
8.64164400100708

>  <fragmenstein_outcome>  (1164) 
too moved

>  <fragmenstein_mode>  (1164) 
expansion

>  <fragmenstein_error>  (1164) 


$$$$
C23251-P48
     RDKit          3D

 37 39  0  0  0  0  0  0  0  0999 V2000
  -11.3906  -25.9976   15.0201 C   0  0  0  0  0  0  0  0  0  0  0  0
  -11.9379  -26.8835   16.1423 C   0  0  0  0  0  0  0  0  0  0  0  0
  -12.0562  -28.3231   15.6068 C   0  0  0  0  0  0  0  0  0  0  0  0
  -13.2877  -26.4638   16.8415 C   0  0  0  0  0  0  0  0  0  0  0  0
  -13.1978  -25.7997   18.1730 N   0  0  0  0  0  0  0  0  0  0  0  0
  -12.1768  -25.9821   19.0604 C   0  0  0  0  0  0  0  0  0  0  0  0
  -11.1706  -26.7889   19.1298 N   0  0  0  0  0  0  0  0  0  0  0  0
  -10.3665  -27.2554   20.8180 N   0  0  0  0  0  0  0  0  0  0  0  0
  -10.4560  -26.5994   22.0902 C   0  0  0  0  0  0  0  0  0  0  0  0
  -10.8258  -27.2020   24.1089 C   0  0  0  0  0  0  0  0  0  0  0  0
  -10.6449  -26.1502   25.4321 C   0  0  0  0  0  0  0  0  0  0  0  0
  -11.1731  -26.0051   26.7585 C   0  0  0  0  0  0  0  0  0  0  0  0
  -12.1394  -26.8499   27.1448 C   0  0  0  0  0  0  0  0  0  0  0  0
  -12.5291  -27.6538   26.1269 C   0  0  0  0  0  0  0  0  0  0  0  0
  -11.9806  -27.7386   24.7867 N   0  0  0  0  0  0  0  0  0  0  0  0
  -11.3076  -24.8004   20.6995 S   0  0  0  0  0  0  0  0  0  0  0  0
  -14.2140  -25.6648   15.9311 C   0  0  0  0  0  0  0  0  0  0  0  0
  -14.8037  -24.5200   16.2446 N   0  0  0  0  0  0  0  0  0  0  0  0
  -15.5352  -24.1608   15.1388 C   0  0  0  0  0  0  0  0  0  0  0  0
  -15.4191  -25.1078   14.1536 C   0  0  0  0  0  0  0  0  0  0  0  0
  -14.5923  -26.0642   14.6710 N   0  0  0  0  0  0  0  0  0  0  0  0
  -12.0312  -25.9840   14.1352 H   0  0  0  0  0  0  0  0  0  0  0  0
  -10.4136  -26.3729   14.6914 H   0  0  0  0  0  0  0  0  0  0  0  0
  -11.2285  -24.9761   15.3520 H   0  0  0  0  0  0  0  0  0  0  0  0
  -11.1361  -26.9340   16.8772 H   0  0  0  0  0  0  0  0  0  0  0  0
  -12.3463  -29.0133   16.4060 H   0  0  0  0  0  0  0  0  0  0  0  0
  -12.7959  -28.4004   14.8050 H   0  0  0  0  0  0  0  0  0  0  0  0
  -11.0954  -28.6694   15.2098 H   0  0  0  0  0  0  0  0  0  0  0  0
  -13.8396  -27.3889   17.0605 H   0  0  0  0  0  0  0  0  0  0  0  0
  -13.7826  -24.9673   18.2139 H   0  0  0  0  0  0  0  0  0  0  0  0
   -9.9941  -25.2528   25.3376 H   0  0  0  0  0  0  0  0  0  0  0  0
  -10.8241  -25.2064   27.4093 H   0  0  0  0  0  0  0  0  0  0  0  0
  -12.6215  -26.8192   28.1110 H   0  0  0  0  0  0  0  0  0  0  0  0
  -13.4015  -28.2808   26.2995 H   0  0  0  0  0  0  0  0  0  0  0  0
  -16.1047  -23.2391   15.1077 H   0  0  0  0  0  0  0  0  0  0  0  0
  -15.8375  -25.1788   13.1596 H   0  0  0  0  0  0  0  0  0  0  0  0
  -14.2978  -26.9068   14.1973 H   0  0  0  0  0  0  0  0  0  0  0  0
  1  2  1  0
  2  3  1  0
  2  4  1  0
  4  5  1  0
  5  6  1  0
  6  7  2  0
  7  8  1  0
  8  9  2  0
  9 10  1  0
 10 11  2  0
 11 12  1  0
 12 13  2  0
 13 14  1  0
 14 15  2  0
  9 16  1  0
  4 17  1  0
 17 18  2  0
 18 19  1  0
 19 20  2  0
 20 21  1  0
 16  6  1  0
 21 17  1  0
 15 10  1  0
  1 22  1  0
  1 23  1  0
  1 24  1  0
  2 25  1  0
  3 26  1  0
  3 27  1  0
  3 28  1  0
  4 29  1  0
  5 30  1  0
 11 31  1  0
 12 32  1  0
 13 33  1  0
 14 34  1  0
 19 35  1  0
 20 36  1  0
 21 37  1  0
M  END
>  <Energy>  (1165) 
575.56295833070965

>  <compound_id>  (1165) 
23251

>  <target_id>  (1165) 
1

>  <reference_id>  (1165) 
48

>  <inspiration_ids>  (1165) 
[48, 115]

>  <energy_score>  (1165) 
450.2430487406594

>  <distance_score>  (1165) 
6.353100249587807

>  <path>  (1165) 
/opt/xchem-fragalysis-2/maxwin/BulkDock/SCRATCH/511024/C23251-P48/C23251-P48.minimised.mol

>  <scratch_subdir>  (1165) 
/opt/xchem-fragalysis-2/maxwin/BulkDock/SCRATCH/511024/C23251-P48

>  <fragmenstein_runtime>  (1165) 
8.815461874008179

>  <fragmenstein_outcome>  (1165) 
too moved

>  <fragmenstein_mode>  (1165) 
expansion

>  <fragmenstein_error>  (1165) 


$$$$
C23251-P115
     RDKit          3D

 37 39  0  0  0  0  0  0  0  0999 V2000
  -15.0505  -27.5646   14.8641 C   0  0  0  0  0  0  0  0  0  0  0  0
  -13.9505  -26.9093   14.0161 C   0  0  0  0  0  0  0  0  0  0  0  0
  -14.1463  -25.3886   14.1138 C   0  0  0  0  0  0  0  0  0  0  0  0
  -12.5012  -27.3557   14.4159 C   0  0  0  0  0  0  0  0  0  0  0  0
  -12.3901  -28.8198   14.3848 N   0  0  0  0  0  0  0  0  0  0  0  0
  -12.6790  -29.6978   15.3889 C   0  0  0  0  0  0  0  0  0  0  0  0
  -13.0246  -30.9545   15.1818 N   0  0  0  0  0  0  0  0  0  0  0  0
  -13.2423  -31.6929   16.3516 N   0  0  0  0  0  0  0  0  0  0  0  0
  -12.9921  -31.0069   17.4540 C   0  0  0  0  0  0  0  0  0  0  0  0
  -13.0835  -31.5518   18.8613 C   0  0  0  0  0  0  0  0  0  0  0  0
  -14.1497  -32.3504   19.2566 C   0  0  0  0  0  0  0  0  0  0  0  0
  -14.2150  -32.8236   20.5743 C   0  0  0  0  0  0  0  0  0  0  0  0
  -13.2097  -32.5046   21.4834 C   0  0  0  0  0  0  0  0  0  0  0  0
  -12.1670  -31.7317   21.0247 C   0  0  0  0  0  0  0  0  0  0  0  0
  -12.1058  -31.2385   19.7582 N   0  0  0  0  0  0  0  0  0  0  0  0
  -12.6301  -29.3472   17.0693 S   0  0  0  0  0  0  0  0  0  0  0  0
  -11.5403  -26.7239   13.4177 C   0  0  0  0  0  0  0  0  0  0  0  0
  -11.4584  -27.0245   12.1336 N   0  0  0  0  0  0  0  0  0  0  0  0
  -10.5771  -26.1301   11.5907 C   0  0  0  0  0  0  0  0  0  0  0  0
  -10.1176  -25.2657   12.5508 C   0  0  0  0  0  0  0  0  0  0  0  0
  -10.6888  -25.6864   13.7198 N   0  0  0  0  0  0  0  0  0  0  0  0
  -15.1009  -28.6438   14.6962 H   0  0  0  0  0  0  0  0  0  0  0  0
  -16.0357  -27.1647   14.5979 H   0  0  0  0  0  0  0  0  0  0  0  0
  -14.8949  -27.3773   15.9314 H   0  0  0  0  0  0  0  0  0  0  0  0
  -14.1364  -27.2003   12.9725 H   0  0  0  0  0  0  0  0  0  0  0  0
  -14.0133  -25.0468   15.1448 H   0  0  0  0  0  0  0  0  0  0  0  0
  -13.4548  -24.8394   13.4691 H   0  0  0  0  0  0  0  0  0  0  0  0
  -15.1585  -25.1084   13.8007 H   0  0  0  0  0  0  0  0  0  0  0  0
  -12.2605  -26.9745   15.4161 H   0  0  0  0  0  0  0  0  0  0  0  0
  -12.4449  -29.1881   13.4360 H   0  0  0  0  0  0  0  0  0  0  0  0
  -14.9276  -32.6157   18.5447 H   0  0  0  0  0  0  0  0  0  0  0  0
  -15.0454  -33.4562   20.8797 H   0  0  0  0  0  0  0  0  0  0  0  0
  -13.2265  -32.8769   22.5011 H   0  0  0  0  0  0  0  0  0  0  0  0
  -11.3327  -31.4641   21.6687 H   0  0  0  0  0  0  0  0  0  0  0  0
  -10.3336  -26.1450   10.5363 H   0  0  0  0  0  0  0  0  0  0  0  0
   -9.4467  -24.4201   12.5053 H   0  0  0  0  0  0  0  0  0  0  0  0
  -10.5414  -25.2735   14.6294 H   0  0  0  0  0  0  0  0  0  0  0  0
  1  2  1  0
  2  3  1  0
  2  4  1  0
  4  5  1  0
  5  6  1  0
  6  7  2  0
  7  8  1  0
  8  9  2  0
  9 10  1  0
 10 11  2  0
 11 12  1  0
 12 13  2  0
 13 14  1  0
 14 15  2  0
  9 16  1  0
  4 17  1  0
 17 18  2  0
 18 19  1  0
 19 20  2  0
 20 21  1  0
 16  6  1  0
 21 17  1  0
 15 10  1  0
  1 22  1  0
  1 23  1  0
  1 24  1  0
  2 25  1  0
  3 26  1  0
  3 27  1  0
  3 28  1  0
  4 29  1  0
  5 30  1  0
 11 31  1  0
 12 32  1  0
 13 33  1  0
 14 34  1  0
 19 35  1  0
 20 36  1  0
 21 37  1  0
M  END
>  <Energy>  (1166) 
40.098210201483731

>  <compound_id>  (1166) 
23251

>  <target_id>  (1166) 
1

>  <reference_id>  (1166) 
115

>  <inspiration_ids>  (1166) 
[48, 115]

>  <energy_score>  (1166) 
-85.22169938855458

>  <distance_score>  (1166) 
9.277136302349039

>  <path>  (1166) 
/opt/xchem-fragalysis-2/maxwin/BulkDock/SCRATCH/511024/C23251-P115/C23251-P115.minimised.mol

>  <scratch_subdir>  (1166) 
/opt/xchem-fragalysis-2/maxwin/BulkDock/SCRATCH/511024/C23251-P115

>  <fragmenstein_runtime>  (1166) 
12.986149787902832

>  <fragmenstein_outcome>  (1166) 
too moved

>  <fragmenstein_mode>  (1166) 
expansion

>  <fragmenstein_error>  (1166) 


$$$$
C23253-P48
     RDKit          3D

 36 37  0  0  0  0  0  0  0  0999 V2000
  -11.9879  -25.6332   29.7327 N   0  0  0  0  0  0  0  0  0  0  0  0
  -11.7943  -25.9660   28.6401 C   0  0  0  0  0  0  0  0  0  0  0  0
  -11.5766  -26.4276   27.3131 C   0  0  0  0  0  0  0  0  0  0  0  0
  -12.2572  -27.4605   26.7462 C   0  0  0  0  0  0  0  0  0  0  0  0
  -11.9823  -27.7947   25.3801 C   0  0  0  0  0  0  0  0  0  0  0  0
  -10.8175  -27.4465   24.5277 C   0  0  0  0  0  0  0  0  0  0  0  0
  -10.5833  -27.5789   22.5910 O   0  0  0  0  0  0  0  0  0  0  0  0
  -10.2918  -29.3985   21.6571 C   0  0  0  0  0  0  0  0  0  0  0  0
  -11.1582  -30.4666   20.3675 C   0  0  0  0  0  0  0  0  0  0  0  0
  -11.9768  -29.8466   19.2880 N   0  0  0  0  0  0  0  0  0  0  0  0
  -12.4198  -30.3671   18.0242 C   0  0  0  0  0  0  0  0  0  0  0  0
  -12.3109  -31.4587   17.5487 O   0  0  0  0  0  0  0  0  0  0  0  0
  -13.1559  -29.2592   17.2407 C   0  0  0  0  0  0  0  0  0  0  0  0
  -12.2345  -28.1828   16.6393 C   0  0  0  0  0  0  0  0  0  0  0  0
  -13.0072  -27.1406   15.9022 C   0  0  0  0  0  0  0  0  0  0  0  0
  -14.0730  -26.5010   16.3400 N   0  0  0  0  0  0  0  0  0  0  0  0
  -14.4517  -25.6705   15.3172 C   0  0  0  0  0  0  0  0  0  0  0  0
  -13.5925  -25.7882   14.2525 C   0  0  0  0  0  0  0  0  0  0  0  0
  -12.6704  -26.7203   14.6389 N   0  0  0  0  0  0  0  0  0  0  0  0
  -10.3794  -26.3491   25.1940 N   0  0  0  0  0  0  0  0  0  0  0  0
  -10.7375  -25.8173   26.4442 C   0  0  0  0  0  0  0  0  0  0  0  0
  -13.1174  -27.8996   27.2503 H   0  0  0  0  0  0  0  0  0  0  0  0
  -12.9536  -27.9864   24.9530 H   0  0  0  0  0  0  0  0  0  0  0  0
   -9.1314  -29.6517   21.8046 H   0  0  0  0  0  0  0  0  0  0  0  0
  -10.4672  -30.3544   22.2668 H   0  0  0  0  0  0  0  0  0  0  0  0
  -10.4311  -31.1750   19.9621 H   0  0  0  0  0  0  0  0  0  0  0  0
  -11.8670  -31.0935   20.9321 H   0  0  0  0  0  0  0  0  0  0  0  0
  -12.1708  -28.8490   19.3211 H   0  0  0  0  0  0  0  0  0  0  0  0
  -13.7296  -29.7456   16.4410 H   0  0  0  0  0  0  0  0  0  0  0  0
  -13.8990  -28.8049   17.9094 H   0  0  0  0  0  0  0  0  0  0  0  0
  -11.6697  -27.6795   17.4304 H   0  0  0  0  0  0  0  0  0  0  0  0
  -11.5049  -28.6589   15.9738 H   0  0  0  0  0  0  0  0  0  0  0  0
  -15.3176  -25.0270   15.4027 H   0  0  0  0  0  0  0  0  0  0  0  0
  -13.5550  -25.3032   13.2874 H   0  0  0  0  0  0  0  0  0  0  0  0
  -11.8857  -27.0496   14.0920 H   0  0  0  0  0  0  0  0  0  0  0  0
  -10.2210  -24.8884   26.6895 H   0  0  0  0  0  0  0  0  0  0  0  0
  1  2  3  0
  2  3  1  0
  3  4  2  0
  4  5  1  0
  5  6  2  0
  6  7  1  0
  7  8  1  0
  8  9  1  0
  9 10  1  0
 10 11  1  0
 11 12  2  0
 11 13  1  0
 13 14  1  0
 14 15  1  0
 15 16  2  0
 16 17  1  0
 17 18  2  0
 18 19  1  0
  6 20  1  0
 20 21  2  0
 21  3  1  0
 19 15  1  0
  4 22  1  0
  5 23  1  0
  8 24  1  0
  8 25  1  0
  9 26  1  0
  9 27  1  0
 10 28  1  0
 13 29  1  0
 13 30  1  0
 14 31  1  0
 14 32  1  0
 17 33  1  0
 18 34  1  0
 19 35  1  0
 21 36  1  0
M  END
>  <Energy>  (1167) 
384.46074741039826

>  <compound_id>  (1167) 
23253

>  <target_id>  (1167) 
1

>  <reference_id>  (1167) 
48

>  <inspiration_ids>  (1167) 
[48, 115]

>  <energy_score>  (1167) 
365.992649877441

>  <distance_score>  (1167) 
7.868112526959205

>  <path>  (1167) 
/opt/xchem-fragalysis-2/maxwin/BulkDock/SCRATCH/511024/C23253-P48/C23253-P48.minimised.mol

>  <scratch_subdir>  (1167) 
/opt/xchem-fragalysis-2/maxwin/BulkDock/SCRATCH/511024/C23253-P48

>  <fragmenstein_runtime>  (1167) 
12.819109678268433

>  <fragmenstein_outcome>  (1167) 
too moved

>  <fragmenstein_mode>  (1167) 
expansion

>  <fragmenstein_error>  (1167) 


$$$$
C23253-P115
     RDKit          3D

 36 37  0  0  0  0  0  0  0  0999 V2000
  -11.5033  -22.4261   28.8554 N   0  0  0  0  0  0  0  0  0  0  0  0
  -11.4465  -23.3826   28.1979 C   0  0  0  0  0  0  0  0  0  0  0  0
  -11.2951  -24.6103   27.4808 C   0  0  0  0  0  0  0  0  0  0  0  0
  -10.3651  -25.5245   27.9108 C   0  0  0  0  0  0  0  0  0  0  0  0
  -10.1013  -26.6466   27.1183 C   0  0  0  0  0  0  0  0  0  0  0  0
  -10.8088  -26.9542   25.9609 C   0  0  0  0  0  0  0  0  0  0  0  0
  -10.5801  -27.9822   25.0517 O   0  0  0  0  0  0  0  0  0  0  0  0
   -9.7769  -29.2396   25.1474 C   0  0  0  0  0  0  0  0  0  0  0  0
   -9.4811  -30.0280   23.7913 C   0  0  0  0  0  0  0  0  0  0  0  0
   -8.1023  -30.2354   23.3676 N   0  0  0  0  0  0  0  0  0  0  0  0
   -7.5506  -31.0723   22.3494 C   0  0  0  0  0  0  0  0  0  0  0  0
   -8.0695  -31.8771   21.6364 O   0  0  0  0  0  0  0  0  0  0  0  0
   -6.0637  -30.7393   22.1470 C   0  0  0  0  0  0  0  0  0  0  0  0
   -5.9183  -29.6408   21.0653 C   0  0  0  0  0  0  0  0  0  0  0  0
   -4.7757  -28.7157   21.3158 C   0  0  0  0  0  0  0  0  0  0  0  0
   -3.7533  -28.9327   22.1195 N   0  0  0  0  0  0  0  0  0  0  0  0
   -2.9517  -27.8260   22.0158 C   0  0  0  0  0  0  0  0  0  0  0  0
   -3.5130  -26.9009   21.1730 C   0  0  0  0  0  0  0  0  0  0  0  0
   -4.6747  -27.4739   20.7336 N   0  0  0  0  0  0  0  0  0  0  0  0
  -11.7429  -26.0586   25.5559 N   0  0  0  0  0  0  0  0  0  0  0  0
  -11.9616  -24.9221   26.3093 C   0  0  0  0  0  0  0  0  0  0  0  0
   -9.7520  -25.3292   28.7890 H   0  0  0  0  0  0  0  0  0  0  0  0
   -9.1591  -27.1104   27.3623 H   0  0  0  0  0  0  0  0  0  0  0  0
  -10.2833  -29.9498   25.8044 H   0  0  0  0  0  0  0  0  0  0  0  0
   -8.8177  -28.9853   25.5877 H   0  0  0  0  0  0  0  0  0  0  0  0
   -9.9719  -31.0066   23.8020 H   0  0  0  0  0  0  0  0  0  0  0  0
   -9.8229  -29.4632   22.9273 H   0  0  0  0  0  0  0  0  0  0  0  0
   -7.3872  -29.6223   23.7074 H   0  0  0  0  0  0  0  0  0  0  0  0
   -5.6207  -30.4414   23.1041 H   0  0  0  0  0  0  0  0  0  0  0  0
   -5.5405  -31.6518   21.8377 H   0  0  0  0  0  0  0  0  0  0  0  0
   -6.8323  -29.0530   21.0174 H   0  0  0  0  0  0  0  0  0  0  0  0
   -5.7820  -30.1152   20.0868 H   0  0  0  0  0  0  0  0  0  0  0  0
   -2.0197  -27.7501   22.5606 H   0  0  0  0  0  0  0  0  0  0  0  0
   -3.2042  -25.9152   20.8552 H   0  0  0  0  0  0  0  0  0  0  0  0
   -5.3701  -27.0260   20.1446 H   0  0  0  0  0  0  0  0  0  0  0  0
  -12.7005  -24.2381   25.8938 H   0  0  0  0  0  0  0  0  0  0  0  0
  1  2  3  0
  2  3  1  0
  3  4  2  0
  4  5  1  0
  5  6  2  0
  6  7  1  0
  7  8  1  0
  8  9  1  0
  9 10  1  0
 10 11  1  0
 11 12  2  0
 11 13  1  0
 13 14  1  0
 14 15  1  0
 15 16  2  0
 16 17  1  0
 17 18  2  0
 18 19  1  0
  6 20  1  0
 20 21  2  0
 21  3  1  0
 19 15  1  0
  4 22  1  0
  5 23  1  0
  8 24  1  0
  8 25  1  0
  9 26  1  0
  9 27  1  0
 10 28  1  0
 13 29  1  0
 13 30  1  0
 14 31  1  0
 14 32  1  0
 17 33  1  0
 18 34  1  0
 19 35  1  0
 21 36  1  0
M  END
>  <Energy>  (1168) 
38.865230742670079

>  <compound_id>  (1168) 
23253

>  <target_id>  (1168) 
1

>  <reference_id>  (1168) 
115

>  <inspiration_ids>  (1168) 
[48, 115]

>  <energy_score>  (1168) 
20.3971332097195

>  <distance_score>  (1168) 
10.483741203573837

>  <path>  (1168) 
/opt/xchem-fragalysis-2/maxwin/BulkDock/SCRATCH/511024/C23253-P115/C23253-P115.minimised.mol

>  <scratch_subdir>  (1168) 
/opt/xchem-fragalysis-2/maxwin/BulkDock/SCRATCH/511024/C23253-P115

>  <fragmenstein_runtime>  (1168) 
12.309271574020386

>  <fragmenstein_outcome>  (1168) 
too moved

>  <fragmenstein_mode>  (1168) 
expansion

>  <fragmenstein_error>  (1168) 


$$$$
C23254-P48
     RDKit          3D

 41 43  0  0  0  0  0  0  0  0999 V2000
  -16.8019  -29.2364   20.6677 O   0  0  0  0  0  0  0  0  0  0  0  0
  -16.9964  -28.0823   20.7334 C   0  0  0  0  0  0  0  0  0  0  0  0
  -17.4459  -27.2423   21.8969 N   0  0  0  0  0  0  0  0  0  0  0  0
  -17.8645  -27.6284   23.2552 C   0  0  0  0  0  0  0  0  0  0  0  0
  -16.8868  -27.2655   24.3684 C   0  0  0  0  0  0  0  0  0  0  0  0
  -16.2289  -26.0485   24.3624 C   0  0  0  0  0  0  0  0  0  0  0  0
  -15.1889  -25.8309   25.2494 C   0  0  0  0  0  0  0  0  0  0  0  0
  -14.8432  -26.6710   26.2507 N   0  0  0  0  0  0  0  0  0  0  0  0
  -15.5942  -27.7946   26.3916 C   0  0  0  0  0  0  0  0  0  0  0  0
  -15.3318  -28.6610   27.6038 C   0  0  0  0  0  0  0  0  0  0  0  0
  -14.9619  -30.1180   27.4596 C   0  0  0  0  0  0  0  0  0  0  0  0
  -13.9286  -29.1291   27.9109 C   0  0  0  0  0  0  0  0  0  0  0  0
  -16.6036  -28.1180   25.4535 C   0  0  0  0  0  0  0  0  0  0  0  0
  -16.7949  -27.0099   19.7040 N   0  0  0  0  0  0  0  0  0  0  0  0
  -16.2096  -27.0713   18.3560 C   0  0  0  0  0  0  0  0  0  0  0  0
  -14.7455  -27.5806   18.3281 C   0  0  0  0  0  0  0  0  0  0  0  0
  -14.3037  -27.8542   16.9916 O   0  0  0  0  0  0  0  0  0  0  0  0
  -16.2934  -25.7104   17.6960 C   0  0  0  0  0  0  0  0  0  0  0  0
  -17.1050  -24.7177   18.0091 N   0  0  0  0  0  0  0  0  0  0  0  0
  -16.8525  -23.7234   17.0964 C   0  0  0  0  0  0  0  0  0  0  0  0
  -15.8582  -24.0986   16.2283 C   0  0  0  0  0  0  0  0  0  0  0  0
  -15.5050  -25.3576   16.6165 N   0  0  0  0  0  0  0  0  0  0  0  0
  -17.5929  -26.2993   21.5884 H   0  0  0  0  0  0  0  0  0  0  0  0
  -18.0157  -28.7130   23.2424 H   0  0  0  0  0  0  0  0  0  0  0  0
  -18.8261  -27.1426   23.4495 H   0  0  0  0  0  0  0  0  0  0  0  0
  -16.5151  -25.2860   23.6506 H   0  0  0  0  0  0  0  0  0  0  0  0
  -14.6109  -24.9117   25.1889 H   0  0  0  0  0  0  0  0  0  0  0  0
  -15.9413  -28.4089   28.4697 H   0  0  0  0  0  0  0  0  0  0  0  0
  -14.8674  -30.5453   26.4696 H   0  0  0  0  0  0  0  0  0  0  0  0
  -15.3520  -30.8123   28.1967 H   0  0  0  0  0  0  0  0  0  0  0  0
  -13.6226  -29.1503   28.9513 H   0  0  0  0  0  0  0  0  0  0  0  0
  -13.1331  -28.8594   27.2276 H   0  0  0  0  0  0  0  0  0  0  0  0
  -17.1488  -29.0522   25.5671 H   0  0  0  0  0  0  0  0  0  0  0  0
  -16.9831  -26.1157   20.1147 H   0  0  0  0  0  0  0  0  0  0  0  0
  -16.8318  -27.7677   17.7812 H   0  0  0  0  0  0  0  0  0  0  0  0
  -14.6505  -28.5100   18.8950 H   0  0  0  0  0  0  0  0  0  0  0  0
  -14.0622  -26.8475   18.7709 H   0  0  0  0  0  0  0  0  0  0  0  0
  -14.6563  -28.7325   16.7529 H   0  0  0  0  0  0  0  0  0  0  0  0
  -17.3910  -22.7846   17.1218 H   0  0  0  0  0  0  0  0  0  0  0  0
  -15.3842  -23.5915   15.4001 H   0  0  0  0  0  0  0  0  0  0  0  0
  -14.7960  -25.9538   16.2015 H   0  0  0  0  0  0  0  0  0  0  0  0
  1  2  2  0
  2  3  1  0
  3  4  1  0
  4  5  1  0
  5  6  2  0
  6  7  1  0
  7  8  2  0
  8  9  1  0
  9 10  1  0
 10 11  1  0
 11 12  1  0
  9 13  2  0
  2 14  1  0
 14 15  1  0
 15 16  1  0
 16 17  1  0
 15 18  1  0
 18 19  2  0
 19 20  1  0
 20 21  2  0
 21 22  1  0
 13  5  1  0
 22 18  1  0
 12 10  1  0
  3 23  1  0
  4 24  1  0
  4 25  1  0
  6 26  1  0
  7 27  1  0
 10 28  1  0
 11 29  1  0
 11 30  1  0
 12 31  1  0
 12 32  1  0
 13 33  1  0
 14 34  1  0
 15 35  1  0
 16 36  1  0
 16 37  1  0
 17 38  1  0
 20 39  1  0
 21 40  1  0
 22 41  1  0
M  END
>  <Energy>  (1169) 
-24.114026317350557

>  <compound_id>  (1169) 
23254

>  <target_id>  (1169) 
1

>  <reference_id>  (1169) 
48

>  <inspiration_ids>  (1169) 
[48, 115]

>  <energy_score>  (1169) 
-2.824462453462246

>  <distance_score>  (1169) 
8.53042951524856

>  <path>  (1169) 
/opt/xchem-fragalysis-2/maxwin/BulkDock/SCRATCH/511024/C23254-P48/C23254-P48.minimised.mol

>  <scratch_subdir>  (1169) 
/opt/xchem-fragalysis-2/maxwin/BulkDock/SCRATCH/511024/C23254-P48

>  <fragmenstein_runtime>  (1169) 
11.565332174301147

>  <fragmenstein_outcome>  (1169) 
too moved

>  <fragmenstein_mode>  (1169) 
expansion

>  <fragmenstein_error>  (1169) 


$$$$
C23254-P115
     RDKit          3D

 41 43  0  0  0  0  0  0  0  0999 V2000
  -14.2815  -25.6210   19.7425 O   0  0  0  0  0  0  0  0  0  0  0  0
  -13.4174  -24.8425   19.7237 C   0  0  0  0  0  0  0  0  0  0  0  0
  -11.7919  -25.1590   20.4811 N   0  0  0  0  0  0  0  0  0  0  0  0
  -11.1235  -26.7985   21.6465 C   0  0  0  0  0  0  0  0  0  0  0  0
  -11.7369  -26.4778   23.7314 C   0  0  0  0  0  0  0  0  0  0  0  0
  -11.2519  -25.1382   24.5307 C   0  0  0  0  0  0  0  0  0  0  0  0
  -11.7324  -24.6258   25.7268 C   0  0  0  0  0  0  0  0  0  0  0  0
  -12.2234  -25.4551   26.5759 N   0  0  0  0  0  0  0  0  0  0  0  0
  -11.8320  -26.7062   26.3328 C   0  0  0  0  0  0  0  0  0  0  0  0
  -11.7933  -27.4685   27.6717 C   0  0  0  0  0  0  0  0  0  0  0  0
  -12.8428  -27.1677   28.7288 C   0  0  0  0  0  0  0  0  0  0  0  0
  -11.4276  -26.7383   28.9577 C   0  0  0  0  0  0  0  0  0  0  0  0
  -11.4716  -27.2046   24.9036 C   0  0  0  0  0  0  0  0  0  0  0  0
  -13.4171  -23.4991   19.2203 N   0  0  0  0  0  0  0  0  0  0  0  0
  -14.4416  -22.7441   18.5015 C   0  0  0  0  0  0  0  0  0  0  0  0
  -15.7409  -22.6273   19.2889 C   0  0  0  0  0  0  0  0  0  0  0  0
  -16.6081  -21.6256   18.7331 O   0  0  0  0  0  0  0  0  0  0  0  0
  -14.7507  -23.4258   17.1680 C   0  0  0  0  0  0  0  0  0  0  0  0
  -14.4827  -24.6562   16.7629 N   0  0  0  0  0  0  0  0  0  0  0  0
  -15.0151  -24.7646   15.5047 C   0  0  0  0  0  0  0  0  0  0  0  0
  -15.5882  -23.5800   15.1137 C   0  0  0  0  0  0  0  0  0  0  0  0
  -15.3934  -22.7307   16.1656 N   0  0  0  0  0  0  0  0  0  0  0  0
  -11.1733  -24.3901   20.2758 H   0  0  0  0  0  0  0  0  0  0  0  0
  -10.2888  -26.6055   20.9667 H   0  0  0  0  0  0  0  0  0  0  0  0
  -11.0967  -27.9265   21.5498 H   0  0  0  0  0  0  0  0  0  0  0  0
  -10.6316  -24.3549   24.0765 H   0  0  0  0  0  0  0  0  0  0  0  0
  -11.6773  -23.5892   26.0279 H   0  0  0  0  0  0  0  0  0  0  0  0
  -11.6341  -28.5306   27.6132 H   0  0  0  0  0  0  0  0  0  0  0  0
  -13.2246  -28.0094   29.2924 H   0  0  0  0  0  0  0  0  0  0  0  0
  -13.5693  -26.3899   28.5376 H   0  0  0  0  0  0  0  0  0  0  0  0
  -10.8620  -27.2425   29.7288 H   0  0  0  0  0  0  0  0  0  0  0  0
  -11.2109  -25.6749   28.9133 H   0  0  0  0  0  0  0  0  0  0  0  0
  -10.9038  -28.1301   24.8624 H   0  0  0  0  0  0  0  0  0  0  0  0
  -12.5622  -23.0821   19.4309 H   0  0  0  0  0  0  0  0  0  0  0  0
  -14.0476  -21.7724   18.2150 H   0  0  0  0  0  0  0  0  0  0  0  0
  -15.5387  -22.3380   20.3259 H   0  0  0  0  0  0  0  0  0  0  0  0
  -16.2896  -23.5765   19.3103 H   0  0  0  0  0  0  0  0  0  0  0  0
  -17.4301  -21.6663   19.2528 H   0  0  0  0  0  0  0  0  0  0  0  0
  -14.9513  -25.6896   14.9475 H   0  0  0  0  0  0  0  0  0  0  0  0
  -16.0954  -23.2750   14.2108 H   0  0  0  0  0  0  0  0  0  0  0  0
  -15.7013  -21.7703   16.2434 H   0  0  0  0  0  0  0  0  0  0  0  0
  1  2  2  0
  2  3  1  0
  3  4  1  0
  4  5  1  0
  5  6  2  0
  6  7  1  0
  7  8  2  0
  8  9  1  0
  9 10  1  0
 10 11  1  0
 11 12  1  0
  9 13  2  0
  2 14  1  0
 14 15  1  0
 15 16  1  0
 16 17  1  0
 15 18  1  0
 18 19  2  0
 19 20  1  0
 20 21  2  0
 21 22  1  0
 13  5  1  0
 22 18  1  0
 12 10  1  0
  3 23  1  0
  4 24  1  0
  4 25  1  0
  6 26  1  0
  7 27  1  0
 10 28  1  0
 11 29  1  0
 11 30  1  0
 12 31  1  0
 12 32  1  0
 13 33  1  0
 14 34  1  0
 15 35  1  0
 16 36  1  0
 16 37  1  0
 17 38  1  0
 20 39  1  0
 21 40  1  0
 22 41  1  0
M  END
>  <Energy>  (1170) 
436.80534386034185

>  <compound_id>  (1170) 
23254

>  <target_id>  (1170) 
1

>  <reference_id>  (1170) 
115

>  <inspiration_ids>  (1170) 
[48, 115]

>  <energy_score>  (1170) 
458.0949077242297

>  <distance_score>  (1170) 
6.740799864011284

>  <path>  (1170) 
/opt/xchem-fragalysis-2/maxwin/BulkDock/SCRATCH/511024/C23254-P115/C23254-P115.minimised.mol

>  <scratch_subdir>  (1170) 
/opt/xchem-fragalysis-2/maxwin/BulkDock/SCRATCH/511024/C23254-P115

>  <fragmenstein_runtime>  (1170) 
14.344338655471802

>  <fragmenstein_outcome>  (1170) 
too moved

>  <fragmenstein_mode>  (1170) 
expansion

>  <fragmenstein_error>  (1170) 


$$$$
C23257-P48
     RDKit          3D

 32 34  0  0  0  0  0  0  0  0999 V2000
  -10.2322  -27.8355   21.7284 O   0  0  0  0  0  0  0  0  0  0  0  0
  -10.5586  -26.8482   22.3329 C   0  0  0  0  0  0  0  0  0  0  0  0
  -11.0717  -25.2847   21.1943 N   0  0  0  0  0  0  0  0  0  0  0  0
  -11.2475  -25.1540   19.8821 C   0  0  0  0  0  0  0  0  0  0  0  0
  -12.1306  -26.1930   18.6811 C   0  0  0  0  0  0  0  0  0  0  0  0
  -11.5588  -26.8541   17.6848 N   0  0  0  0  0  0  0  0  0  0  0  0
  -12.5797  -27.3033   16.8896 C   0  0  0  0  0  0  0  0  0  0  0  0
  -13.7946  -26.9051   17.3914 C   0  0  0  0  0  0  0  0  0  0  0  0
  -13.5029  -26.2167   18.5390 N   0  0  0  0  0  0  0  0  0  0  0  0
  -10.7978  -27.1130   24.4558 C   0  0  0  0  0  0  0  0  0  0  0  0
  -10.2823  -27.8708   25.4296 C   0  0  0  0  0  0  0  0  0  0  0  0
  -10.5898  -28.0474   26.8952 C   0  0  0  0  0  0  0  0  0  0  0  0
  -11.3026  -27.2272   27.6277 N   0  0  0  0  0  0  0  0  0  0  0  0
  -11.7216  -26.2132   26.9125 C   0  0  0  0  0  0  0  0  0  0  0  0
  -12.1838  -24.9768   27.6236 C   0  0  0  0  0  0  0  0  0  0  0  0
  -11.1288  -24.0109   28.1121 C   0  0  0  0  0  0  0  0  0  0  0  0
  -12.0078  -23.6190   26.9749 C   0  0  0  0  0  0  0  0  0  0  0  0
  -11.6268  -26.2658   25.4753 C   0  0  0  0  0  0  0  0  0  0  0  0
  -11.2265  -24.5606   21.7255 H   0  0  0  0  0  0  0  0  0  0  0  0
  -12.2563  -24.6394   20.0251 H   0  0  0  0  0  0  0  0  0  0  0  0
  -10.6916  -24.2988   20.1218 H   0  0  0  0  0  0  0  0  0  0  0  0
  -12.3801  -27.8808   15.9964 H   0  0  0  0  0  0  0  0  0  0  0  0
  -14.8076  -27.0536   17.0484 H   0  0  0  0  0  0  0  0  0  0  0  0
  -14.1549  -25.7625   19.1584 H   0  0  0  0  0  0  0  0  0  0  0  0
   -9.3689  -28.3300   25.0614 H   0  0  0  0  0  0  0  0  0  0  0  0
  -10.0549  -28.8045   27.4710 H   0  0  0  0  0  0  0  0  0  0  0  0
  -12.9549  -25.1355   28.3677 H   0  0  0  0  0  0  0  0  0  0  0  0
  -11.3082  -23.5239   29.0639 H   0  0  0  0  0  0  0  0  0  0  0  0
  -10.0887  -24.2111   27.8917 H   0  0  0  0  0  0  0  0  0  0  0  0
  -11.5488  -23.5450   26.0020 H   0  0  0  0  0  0  0  0  0  0  0  0
  -12.6972  -22.8085   27.1559 H   0  0  0  0  0  0  0  0  0  0  0  0
  -12.5046  -25.6779   25.1868 H   0  0  0  0  0  0  0  0  0  0  0  0
  1  2  2  0
  2  3  1  0
  3  4  1  0
  4  5  1  0
  5  6  2  0
  6  7  1  0
  7  8  2  0
  8  9  1  0
  2 10  1  0
 10 11  2  0
 11 12  1  0
 12 13  2  0
 13 14  1  0
 14 15  1  0
 15 16  1  0
 16 17  1  0
 14 18  2  0
  9  5  1  0
 18 10  1  0
 17 15  1  0
  3 19  1  0
  4 20  1  0
  4 21  1  0
  7 22  1  0
  8 23  1  0
  9 24  1  0
 11 25  1  0
 12 26  1  0
 15 27  1  0
 16 28  1  0
 16 29  1  0
 17 30  1  0
 17 31  1  0
 18 32  1  0
M  END
>  <Energy>  (1171) 
454.91643406912573

>  <compound_id>  (1171) 
23257

>  <target_id>  (1171) 
1

>  <reference_id>  (1171) 
48

>  <inspiration_ids>  (1171) 
[48, 115]

>  <energy_score>  (1171) 
445.72267926362827

>  <distance_score>  (1171) 
6.588859961973061

>  <path>  (1171) 
/opt/xchem-fragalysis-2/maxwin/BulkDock/SCRATCH/511024/C23257-P48/C23257-P48.minimised.mol

>  <scratch_subdir>  (1171) 
/opt/xchem-fragalysis-2/maxwin/BulkDock/SCRATCH/511024/C23257-P48

>  <fragmenstein_runtime>  (1171) 
10.667994022369385

>  <fragmenstein_outcome>  (1171) 
too moved

>  <fragmenstein_mode>  (1171) 
expansion

>  <fragmenstein_error>  (1171) 


$$$$
C23257-P115
     RDKit          3D

 32 34  0  0  0  0  0  0  0  0999 V2000
   -7.8953  -32.1434   22.3020 O   0  0  0  0  0  0  0  0  0  0  0  0
   -8.8320  -31.3977   22.2993 C   0  0  0  0  0  0  0  0  0  0  0  0
   -9.5854  -30.8373   21.2042 N   0  0  0  0  0  0  0  0  0  0  0  0
   -9.5051  -31.0770   19.7741 C   0  0  0  0  0  0  0  0  0  0  0  0
  -10.0593  -30.0190   18.8553 C   0  0  0  0  0  0  0  0  0  0  0  0
  -10.9596  -29.0775   19.0833 N   0  0  0  0  0  0  0  0  0  0  0  0
  -11.2380  -28.5109   17.8567 C   0  0  0  0  0  0  0  0  0  0  0  0
  -10.4392  -29.0457   16.8805 C   0  0  0  0  0  0  0  0  0  0  0  0
   -9.6867  -29.9896   17.5216 N   0  0  0  0  0  0  0  0  0  0  0  0
   -9.2972  -31.0269   23.6834 C   0  0  0  0  0  0  0  0  0  0  0  0
   -9.3856  -32.0004   24.6585 C   0  0  0  0  0  0  0  0  0  0  0  0
   -9.9426  -31.6261   25.8509 C   0  0  0  0  0  0  0  0  0  0  0  0
  -10.3533  -30.3644   26.1111 N   0  0  0  0  0  0  0  0  0  0  0  0
  -10.0716  -29.3025   25.2964 C   0  0  0  0  0  0  0  0  0  0  0  0
  -10.7243  -27.8785   25.9237 C   0  0  0  0  0  0  0  0  0  0  0  0
  -11.0342  -26.5218   25.4251 C   0  0  0  0  0  0  0  0  0  0  0  0
  -10.3304  -26.7012   26.7494 C   0  0  0  0  0  0  0  0  0  0  0  0
   -9.6241  -29.7078   24.0275 C   0  0  0  0  0  0  0  0  0  0  0  0
  -10.3705  -30.3080   21.5777 H   0  0  0  0  0  0  0  0  0  0  0  0
   -8.4506  -31.2633   19.5406 H   0  0  0  0  0  0  0  0  0  0  0  0
  -10.0427  -32.0144   19.5914 H   0  0  0  0  0  0  0  0  0  0  0  0
  -11.9858  -27.7363   17.7448 H   0  0  0  0  0  0  0  0  0  0  0  0
  -10.3462  -28.8525   15.8204 H   0  0  0  0  0  0  0  0  0  0  0  0
   -9.0068  -30.6019   17.0882 H   0  0  0  0  0  0  0  0  0  0  0  0
   -9.0891  -33.0256   24.4713 H   0  0  0  0  0  0  0  0  0  0  0  0
  -10.1019  -32.3405   26.6532 H   0  0  0  0  0  0  0  0  0  0  0  0
  -11.3775  -28.2478   26.7299 H   0  0  0  0  0  0  0  0  0  0  0  0
  -12.0816  -26.2266   25.4502 H   0  0  0  0  0  0  0  0  0  0  0  0
  -10.4916  -25.9054   24.7507 H   0  0  0  0  0  0  0  0  0  0  0  0
  -10.9248  -26.4212   27.6226 H   0  0  0  0  0  0  0  0  0  0  0  0
   -9.2998  -26.7197   27.0445 H   0  0  0  0  0  0  0  0  0  0  0  0
   -9.6605  -29.0566   23.1635 H   0  0  0  0  0  0  0  0  0  0  0  0
  1  2  2  0
  2  3  1  0
  3  4  1  0
  4  5  1  0
  5  6  2  0
  6  7  1  0
  7  8  2  0
  8  9  1  0
  2 10  1  0
 10 11  2  0
 11 12  1  0
 12 13  2  0
 13 14  1  0
 14 15  1  0
 15 16  1  0
 16 17  1  0
 14 18  2  0
  9  5  1  0
 18 10  1  0
 17 15  1  0
  3 19  1  0
  4 20  1  0
  4 21  1  0
  7 22  1  0
  8 23  1  0
  9 24  1  0
 11 25  1  0
 12 26  1  0
 15 27  1  0
 16 28  1  0
 16 29  1  0
 17 30  1  0
 17 31  1  0
 18 32  1  0
M  END
>  <Energy>  (1172) 
63.396970201995444

>  <compound_id>  (1172) 
23257

>  <target_id>  (1172) 
1

>  <reference_id>  (1172) 
115

>  <inspiration_ids>  (1172) 
[48, 115]

>  <energy_score>  (1172) 
54.20321539650054

>  <distance_score>  (1172) 
8.578910738020104

>  <path>  (1172) 
/opt/xchem-fragalysis-2/maxwin/BulkDock/SCRATCH/511024/C23257-P115/C23257-P115.minimised.mol

>  <scratch_subdir>  (1172) 
/opt/xchem-fragalysis-2/maxwin/BulkDock/SCRATCH/511024/C23257-P115

>  <fragmenstein_runtime>  (1172) 
15.7685227394104

>  <fragmenstein_outcome>  (1172) 
too moved

>  <fragmenstein_mode>  (1172) 
expansion

>  <fragmenstein_error>  (1172) 


$$$$
C23260-P48
     RDKit          3D

 36 38  0  0  0  0  0  0  0  0999 V2000
  -10.0590  -22.9966   16.4093 O   0  0  0  0  0  0  0  0  0  0  0  0
   -9.3770  -22.0754   16.2227 C   0  0  0  0  0  0  0  0  0  0  0  0
   -8.9019  -20.9984   17.7428 N   0  0  0  0  0  0  0  0  0  0  0  0
   -9.2445  -21.2265   19.6975 C   0  0  0  0  0  0  0  0  0  0  0  0
  -10.3024  -21.6071   21.2134 C   0  0  0  0  0  0  0  0  0  0  0  0
  -11.6062  -21.8092   21.0762 C   0  0  0  0  0  0  0  0  0  0  0  0
  -12.3214  -21.5368   22.2247 C   0  0  0  0  0  0  0  0  0  0  0  0
  -12.5119  -22.2744   23.2717 N   0  0  0  0  0  0  0  0  0  0  0  0
  -11.3165  -22.3886   23.7452 C   0  0  0  0  0  0  0  0  0  0  0  0
  -11.4438  -23.2902   25.2921 C   0  0  0  0  0  0  0  0  0  0  0  0
  -11.9859  -22.6953   26.5854 C   0  0  0  0  0  0  0  0  0  0  0  0
  -12.8409  -23.6354   25.8180 C   0  0  0  0  0  0  0  0  0  0  0  0
  -10.1087  -21.8959   22.7353 C   0  0  0  0  0  0  0  0  0  0  0  0
   -8.9043  -22.1046   14.6203 C   0  0  0  0  0  0  0  0  0  0  0  0
   -7.8713  -21.8085   14.1224 O   0  0  0  0  0  0  0  0  0  0  0  0
  -10.0991  -22.6986   14.0408 N   0  0  0  0  0  0  0  0  0  0  0  0
  -10.3435  -23.1686   12.7982 C   0  0  0  0  0  0  0  0  0  0  0  0
  -11.5676  -23.3925   12.3622 N   0  0  0  0  0  0  0  0  0  0  0  0
  -11.4948  -24.4419   11.4850 C   0  0  0  0  0  0  0  0  0  0  0  0
  -10.2134  -24.9233   11.4255 C   0  0  0  0  0  0  0  0  0  0  0  0
   -9.4914  -24.0846   12.2335 N   0  0  0  0  0  0  0  0  0  0  0  0
   -8.2608  -20.3100   17.4574 H   0  0  0  0  0  0  0  0  0  0  0  0
   -9.8514  -22.0894   19.5158 H   0  0  0  0  0  0  0  0  0  0  0  0
   -9.3834  -20.2106   19.7032 H   0  0  0  0  0  0  0  0  0  0  0  0
  -12.1219  -21.9408   20.1558 H   0  0  0  0  0  0  0  0  0  0  0  0
  -12.0374  -20.5377   22.6009 H   0  0  0  0  0  0  0  0  0  0  0  0
  -10.6465  -24.0229   25.4378 H   0  0  0  0  0  0  0  0  0  0  0  0
  -11.5698  -23.0450   27.5240 H   0  0  0  0  0  0  0  0  0  0  0  0
  -12.1463  -21.6277   26.5759 H   0  0  0  0  0  0  0  0  0  0  0  0
  -13.6998  -23.2422   25.2889 H   0  0  0  0  0  0  0  0  0  0  0  0
  -12.9830  -24.6297   26.2183 H   0  0  0  0  0  0  0  0  0  0  0  0
   -9.1129  -22.0734   23.1032 H   0  0  0  0  0  0  0  0  0  0  0  0
  -10.8156  -22.7372   14.7352 H   0  0  0  0  0  0  0  0  0  0  0  0
  -12.3740  -24.8121   10.9737 H   0  0  0  0  0  0  0  0  0  0  0  0
   -9.7606  -25.7512   10.8982 H   0  0  0  0  0  0  0  0  0  0  0  0
   -8.5353  -24.2284   12.5109 H   0  0  0  0  0  0  0  0  0  0  0  0
  1  2  2  0
  2  3  1  0
  3  4  1  0
  4  5  1  0
  5  6  2  0
  6  7  1  0
  7  8  2  0
  8  9  1  0
  9 10  1  0
 10 11  1  0
 11 12  1  0
  9 13  2  0
  2 14  1  0
 14 15  2  0
 14 16  1  0
 16 17  1  0
 17 18  2  0
 18 19  1  0
 19 20  2  0
 20 21  1  0
 13  5  1  0
 21 17  1  0
 12 10  1  0
  3 22  1  0
  4 23  1  0
  4 24  1  0
  6 25  1  0
  7 26  1  0
 10 27  1  0
 11 28  1  0
 11 29  1  0
 12 30  1  0
 12 31  1  0
 13 32  1  0
 16 33  1  0
 19 34  1  0
 20 35  1  0
 21 36  1  0
M  END
>  <Energy>  (1173) 
509.45716569337566

>  <compound_id>  (1173) 
23260

>  <target_id>  (1173) 
1

>  <reference_id>  (1173) 
48

>  <inspiration_ids>  (1173) 
[48, 115]

>  <energy_score>  (1173) 
445.82038414509924

>  <distance_score>  (1173) 
6.254672104504226

>  <path>  (1173) 
/opt/xchem-fragalysis-2/maxwin/BulkDock/SCRATCH/511024/C23260-P48/C23260-P48.minimised.mol

>  <scratch_subdir>  (1173) 
/opt/xchem-fragalysis-2/maxwin/BulkDock/SCRATCH/511024/C23260-P48

>  <fragmenstein_runtime>  (1173) 
10.968310356140137

>  <fragmenstein_outcome>  (1173) 
too moved

>  <fragmenstein_mode>  (1173) 
expansion

>  <fragmenstein_error>  (1173) 


$$$$
C23260-P115
     RDKit          3D

 36 38  0  0  0  0  0  0  0  0999 V2000
  -13.9730  -25.3122   20.3999 O   0  0  0  0  0  0  0  0  0  0  0  0
  -13.4595  -24.5374   19.6460 C   0  0  0  0  0  0  0  0  0  0  0  0
  -12.6667  -23.0415   20.1125 N   0  0  0  0  0  0  0  0  0  0  0  0
  -12.3137  -22.3637   21.6976 C   0  0  0  0  0  0  0  0  0  0  0  0
  -12.8079  -22.6953   23.2072 C   0  0  0  0  0  0  0  0  0  0  0  0
  -14.0697  -22.9806   23.7084 C   0  0  0  0  0  0  0  0  0  0  0  0
  -14.2872  -23.7969   24.8208 C   0  0  0  0  0  0  0  0  0  0  0  0
  -13.3373  -24.2377   25.6309 N   0  0  0  0  0  0  0  0  0  0  0  0
  -12.1045  -23.7713   25.3908 C   0  0  0  0  0  0  0  0  0  0  0  0
  -11.0342  -24.2561   26.3286 C   0  0  0  0  0  0  0  0  0  0  0  0
  -11.3184  -25.2273   27.4511 C   0  0  0  0  0  0  0  0  0  0  0  0
  -10.9695  -23.8021   27.7603 C   0  0  0  0  0  0  0  0  0  0  0  0
  -11.8279  -23.0269   24.1752 C   0  0  0  0  0  0  0  0  0  0  0  0
  -13.6198  -25.1530   17.9340 C   0  0  0  0  0  0  0  0  0  0  0  0
  -13.0097  -26.1676   17.7493 O   0  0  0  0  0  0  0  0  0  0  0  0
  -14.4078  -24.3643   17.0337 N   0  0  0  0  0  0  0  0  0  0  0  0
  -14.7652  -24.5783   15.7435 C   0  0  0  0  0  0  0  0  0  0  0  0
  -15.5635  -23.8351   15.0204 N   0  0  0  0  0  0  0  0  0  0  0  0
  -15.5621  -24.4082   13.7709 C   0  0  0  0  0  0  0  0  0  0  0  0
  -14.7454  -25.5148   13.7366 C   0  0  0  0  0  0  0  0  0  0  0  0
  -14.2562  -25.6231   15.0086 N   0  0  0  0  0  0  0  0  0  0  0  0
  -12.3994  -22.5353   19.2874 H   0  0  0  0  0  0  0  0  0  0  0  0
  -12.2052  -21.2898   21.5864 H   0  0  0  0  0  0  0  0  0  0  0  0
  -11.2370  -22.5047   21.7183 H   0  0  0  0  0  0  0  0  0  0  0  0
  -14.9984  -22.7043   23.3085 H   0  0  0  0  0  0  0  0  0  0  0  0
  -15.2948  -24.1146   25.0718 H   0  0  0  0  0  0  0  0  0  0  0  0
  -10.0896  -24.3645   25.8461 H   0  0  0  0  0  0  0  0  0  0  0  0
  -12.3397  -25.5413   27.6293 H   0  0  0  0  0  0  0  0  0  0  0  0
  -10.5786  -25.9872   27.6696 H   0  0  0  0  0  0  0  0  0  0  0  0
  -11.7405  -23.1307   28.1160 H   0  0  0  0  0  0  0  0  0  0  0  0
   -9.9922  -23.6010   28.1760 H   0  0  0  0  0  0  0  0  0  0  0  0
  -10.7952  -22.9554   23.8400 H   0  0  0  0  0  0  0  0  0  0  0  0
  -14.8406  -23.6311   17.5411 H   0  0  0  0  0  0  0  0  0  0  0  0
  -16.1465  -23.9903   12.9612 H   0  0  0  0  0  0  0  0  0  0  0  0
  -14.4857  -26.2120   12.9529 H   0  0  0  0  0  0  0  0  0  0  0  0
  -13.6165  -26.3219   15.3660 H   0  0  0  0  0  0  0  0  0  0  0  0
  1  2  2  0
  2  3  1  0
  3  4  1  0
  4  5  1  0
  5  6  2  0
  6  7  1  0
  7  8  2  0
  8  9  1  0
  9 10  1  0
 10 11  1  0
 11 12  1  0
  9 13  2  0
  2 14  1  0
 14 15  2  0
 14 16  1  0
 16 17  1  0
 17 18  2  0
 18 19  1  0
 19 20  2  0
 20 21  1  0
 13  5  1  0
 21 17  1  0
 12 10  1  0
  3 22  1  0
  4 23  1  0
  4 24  1  0
  6 25  1  0
  7 26  1  0
 10 27  1  0
 11 28  1  0
 11 29  1  0
 12 30  1  0
 12 31  1  0
 13 32  1  0
 16 33  1  0
 19 34  1  0
 20 35  1  0
 21 36  1  0
M  END
>  <Energy>  (1174) 
171.59463569019832

>  <compound_id>  (1174) 
23260

>  <target_id>  (1174) 
1

>  <reference_id>  (1174) 
115

>  <inspiration_ids>  (1174) 
[48, 115]

>  <energy_score>  (1174) 
107.95785414192335

>  <distance_score>  (1174) 
6.745147232946434

>  <path>  (1174) 
/opt/xchem-fragalysis-2/maxwin/BulkDock/SCRATCH/511024/C23260-P115/C23260-P115.minimised.mol

>  <scratch_subdir>  (1174) 
/opt/xchem-fragalysis-2/maxwin/BulkDock/SCRATCH/511024/C23260-P115

>  <fragmenstein_runtime>  (1174) 
14.855578660964966

>  <fragmenstein_outcome>  (1174) 
too moved

>  <fragmenstein_mode>  (1174) 
expansion

>  <fragmenstein_error>  (1174) 


$$$$
C23261-P48
     RDKit          3D

 32 34  0  0  0  0  0  0  0  0999 V2000
  -13.7210  -26.9343   19.5542 O   0  0  0  0  0  0  0  0  0  0  0  0
  -13.8280  -25.9409   18.9118 C   0  0  0  0  0  0  0  0  0  0  0  0
  -13.4257  -24.5973   19.1914 N   0  0  0  0  0  0  0  0  0  0  0  0
  -12.5156  -23.9111   20.5282 C   0  0  0  0  0  0  0  0  0  0  0  0
  -12.4966  -22.6062   21.7893 C   0  0  0  0  0  0  0  0  0  0  0  0
  -11.4878  -21.6750   21.8678 C   0  0  0  0  0  0  0  0  0  0  0  0
  -11.3748  -21.0031   23.1100 C   0  0  0  0  0  0  0  0  0  0  0  0
  -12.1155  -21.1319   24.2833 N   0  0  0  0  0  0  0  0  0  0  0  0
  -12.9397  -22.1548   24.3914 C   0  0  0  0  0  0  0  0  0  0  0  0
  -12.9889  -23.0437   25.7074 C   0  0  0  0  0  0  0  0  0  0  0  0
  -11.8383  -23.8979   26.2289 C   0  0  0  0  0  0  0  0  0  0  0  0
  -12.1716  -22.6385   26.9324 C   0  0  0  0  0  0  0  0  0  0  0  0
  -13.0341  -22.8026   23.1667 C   0  0  0  0  0  0  0  0  0  0  0  0
  -14.3632  -25.9969   17.5444 C   0  0  0  0  0  0  0  0  0  0  0  0
  -14.5359  -24.9378   16.7656 N   0  0  0  0  0  0  0  0  0  0  0  0
  -14.8669  -25.4353   15.5273 C   0  0  0  0  0  0  0  0  0  0  0  0
  -14.8852  -26.8084   15.5444 C   0  0  0  0  0  0  0  0  0  0  0  0
  -14.5755  -27.1515   16.8314 N   0  0  0  0  0  0  0  0  0  0  0  0
  -13.6066  -24.0148   18.3627 H   0  0  0  0  0  0  0  0  0  0  0  0
  -12.5387  -22.9673   19.9808 H   0  0  0  0  0  0  0  0  0  0  0  0
  -11.5908  -24.4593   20.5977 H   0  0  0  0  0  0  0  0  0  0  0  0
  -10.7741  -21.5160   21.0744 H   0  0  0  0  0  0  0  0  0  0  0  0
  -10.5744  -20.3277   23.3011 H   0  0  0  0  0  0  0  0  0  0  0  0
  -13.9645  -23.4853   25.8347 H   0  0  0  0  0  0  0  0  0  0  0  0
  -12.0894  -24.8229   26.7372 H   0  0  0  0  0  0  0  0  0  0  0  0
  -10.8726  -23.9386   25.7520 H   0  0  0  0  0  0  0  0  0  0  0  0
  -11.6159  -21.7180   26.8408 H   0  0  0  0  0  0  0  0  0  0  0  0
  -12.4242  -22.7839   27.9633 H   0  0  0  0  0  0  0  0  0  0  0  0
  -11.9893  -23.0888   23.5193 H   0  0  0  0  0  0  0  0  0  0  0  0
  -15.0679  -24.7774   14.6909 H   0  0  0  0  0  0  0  0  0  0  0  0
  -15.0864  -27.5464   14.7808 H   0  0  0  0  0  0  0  0  0  0  0  0
  -14.4624  -28.0833   17.2083 H   0  0  0  0  0  0  0  0  0  0  0  0
  1  2  2  0
  2  3  1  0
  3  4  1  0
  4  5  1  0
  5  6  2  0
  6  7  1  0
  7  8  2  0
  8  9  1  0
  9 10  1  0
 10 11  1  0
 11 12  1  0
  9 13  2  0
  2 14  1  0
 14 15  2  0
 15 16  1  0
 16 17  2  0
 17 18  1  0
 13  5  1  0
 18 14  1  0
 12 10  1  0
  3 19  1  0
  4 20  1  0
  4 21  1  0
  6 22  1  0
  7 23  1  0
 10 24  1  0
 11 25  1  0
 11 26  1  0
 12 27  1  0
 12 28  1  0
 13 29  1  0
 16 30  1  0
 17 31  1  0
 18 32  1  0
M  END
>  <Energy>  (1175) 
236.71386421945095

>  <compound_id>  (1175) 
23261

>  <target_id>  (1175) 
1

>  <reference_id>  (1175) 
48

>  <inspiration_ids>  (1175) 
[48, 115]

>  <energy_score>  (1175) 
212.5229295278641

>  <distance_score>  (1175) 
7.471261051533544

>  <path>  (1175) 
/opt/xchem-fragalysis-2/maxwin/BulkDock/SCRATCH/511024/C23261-P48/C23261-P48.minimised.mol

>  <scratch_subdir>  (1175) 
/opt/xchem-fragalysis-2/maxwin/BulkDock/SCRATCH/511024/C23261-P48

>  <fragmenstein_runtime>  (1175) 
8.837082386016846

>  <fragmenstein_outcome>  (1175) 
too moved

>  <fragmenstein_mode>  (1175) 
expansion

>  <fragmenstein_error>  (1175) 


$$$$
C23261-P115
     RDKit          3D

 32 34  0  0  0  0  0  0  0  0999 V2000
  -16.0138  -26.7892   17.7631 O   0  0  0  0  0  0  0  0  0  0  0  0
  -14.8783  -26.4212   17.9636 C   0  0  0  0  0  0  0  0  0  0  0  0
  -14.1811  -25.9881   19.2785 N   0  0  0  0  0  0  0  0  0  0  0  0
  -14.7860  -25.8266   20.8544 C   0  0  0  0  0  0  0  0  0  0  0  0
  -15.4019  -26.2801   22.5343 C   0  0  0  0  0  0  0  0  0  0  0  0
  -16.5354  -26.9887   22.8999 C   0  0  0  0  0  0  0  0  0  0  0  0
  -16.7124  -27.2826   24.2658 C   0  0  0  0  0  0  0  0  0  0  0  0
  -15.8642  -26.9382   25.2851 N   0  0  0  0  0  0  0  0  0  0  0  0
  -14.8473  -26.1102   24.9929 C   0  0  0  0  0  0  0  0  0  0  0  0
  -13.7456  -25.8337   26.0323 C   0  0  0  0  0  0  0  0  0  0  0  0
  -12.2793  -26.0001   25.6835 C   0  0  0  0  0  0  0  0  0  0  0  0
  -12.8133  -24.6384   25.9660 C   0  0  0  0  0  0  0  0  0  0  0  0
  -14.7776  -25.6472   23.6794 C   0  0  0  0  0  0  0  0  0  0  0  0
  -13.9558  -26.4331   16.8113 C   0  0  0  0  0  0  0  0  0  0  0  0
  -12.6365  -26.4603   16.8588 N   0  0  0  0  0  0  0  0  0  0  0  0
  -12.2073  -26.5696   15.5560 C   0  0  0  0  0  0  0  0  0  0  0  0
  -13.2760  -26.6021   14.6954 C   0  0  0  0  0  0  0  0  0  0  0  0
  -14.3763  -26.5207   15.5009 N   0  0  0  0  0  0  0  0  0  0  0  0
  -13.1873  -25.8179   19.0949 H   0  0  0  0  0  0  0  0  0  0  0  0
  -14.5004  -26.7983   20.9749 H   0  0  0  0  0  0  0  0  0  0  0  0
  -14.0946  -25.0284   21.0598 H   0  0  0  0  0  0  0  0  0  0  0  0
  -17.2700  -27.3368   22.1828 H   0  0  0  0  0  0  0  0  0  0  0  0
  -17.5744  -27.8674   24.5839 H   0  0  0  0  0  0  0  0  0  0  0  0
  -13.9517  -26.2625   27.0086 H   0  0  0  0  0  0  0  0  0  0  0  0
  -12.0246  -26.3125   24.6880 H   0  0  0  0  0  0  0  0  0  0  0  0
  -11.6335  -26.4431   26.4372 H   0  0  0  0  0  0  0  0  0  0  0  0
  -12.9241  -23.9065   25.1791 H   0  0  0  0  0  0  0  0  0  0  0  0
  -12.4473  -24.1807   26.8800 H   0  0  0  0  0  0  0  0  0  0  0  0
  -14.1907  -24.7602   23.5186 H   0  0  0  0  0  0  0  0  0  0  0  0
  -11.1520  -26.6152   15.3138 H   0  0  0  0  0  0  0  0  0  0  0  0
  -13.3470  -26.6845   13.6201 H   0  0  0  0  0  0  0  0  0  0  0  0
  -15.3474  -26.5602   15.2202 H   0  0  0  0  0  0  0  0  0  0  0  0
  1  2  2  0
  2  3  1  0
  3  4  1  0
  4  5  1  0
  5  6  2  0
  6  7  1  0
  7  8  2  0
  8  9  1  0
  9 10  1  0
 10 11  1  0
 11 12  1  0
  9 13  2  0
  2 14  1  0
 14 15  2  0
 15 16  1  0
 16 17  2  0
 17 18  1  0
 13  5  1  0
 18 14  1  0
 12 10  1  0
  3 19  1  0
  4 20  1  0
  4 21  1  0
  6 22  1  0
  7 23  1  0
 10 24  1  0
 11 25  1  0
 11 26  1  0
 12 27  1  0
 12 28  1  0
 13 29  1  0
 16 30  1  0
 17 31  1  0
 18 32  1  0
M  END
>  <Energy>  (1176) 
174.83763821973326

>  <compound_id>  (1176) 
23261

>  <target_id>  (1176) 
1

>  <reference_id>  (1176) 
115

>  <inspiration_ids>  (1176) 
[48, 115]

>  <energy_score>  (1176) 
150.64670352814665

>  <distance_score>  (1176) 
7.324012773681596

>  <path>  (1176) 
/opt/xchem-fragalysis-2/maxwin/BulkDock/SCRATCH/511024/C23261-P115/C23261-P115.minimised.mol

>  <scratch_subdir>  (1176) 
/opt/xchem-fragalysis-2/maxwin/BulkDock/SCRATCH/511024/C23261-P115

>  <fragmenstein_runtime>  (1176) 
11.297966241836548

>  <fragmenstein_outcome>  (1176) 
too moved

>  <fragmenstein_mode>  (1176) 
expansion

>  <fragmenstein_error>  (1176) 


$$$$
C23262-P48
     RDKit          3D

 35 37  0  0  0  0  0  0  0  0999 V2000
  -11.7151  -27.9783   25.0876 O   0  0  0  0  0  0  0  0  0  0  0  0
  -10.9317  -27.1442   24.7703 C   0  0  0  0  0  0  0  0  0  0  0  0
  -10.3464  -27.3623   22.7599 C   0  0  0  0  0  0  0  0  0  0  0  0
  -10.1494  -29.2254   21.6680 C   0  0  0  0  0  0  0  0  0  0  0  0
   -8.7634  -29.8353   21.8309 N   0  0  0  0  0  0  0  0  0  0  0  0
   -8.7204  -31.1233   21.3391 C   0  0  0  0  0  0  0  0  0  0  0  0
   -9.9682  -31.5613   21.0195 C   0  0  0  0  0  0  0  0  0  0  0  0
  -10.8364  -30.5977   21.4464 N   0  0  0  0  0  0  0  0  0  0  0  0
  -10.4506  -25.9478   25.6081 N   0  0  0  0  0  0  0  0  0  0  0  0
  -10.8817  -25.4483   26.9532 C   0  0  0  0  0  0  0  0  0  0  0  0
  -11.2643  -26.4132   28.1021 C   0  0  0  0  0  0  0  0  0  0  0  0
  -11.1316  -25.8508   29.5435 C   0  0  0  0  0  0  0  0  0  0  0  0
  -12.1017  -25.0168   30.0854 C   0  0  0  0  0  0  0  0  0  0  0  0
  -12.0505  -24.6375   31.4262 C   0  0  0  0  0  0  0  0  0  0  0  0
  -11.0229  -25.1115   32.2244 C   0  0  0  0  0  0  0  0  0  0  0  0
  -10.0885  -25.9381   31.6363 C   0  0  0  0  0  0  0  0  0  0  0  0
  -10.1249  -26.3048   30.3345 N   0  0  0  0  0  0  0  0  0  0  0  0
  -12.4732  -27.3272   27.8852 C   0  0  0  0  0  0  0  0  0  0  0  0
  -11.1080  -27.9273   28.0130 C   0  0  0  0  0  0  0  0  0  0  0  0
  -11.1970  -27.7769   23.0043 H   0  0  0  0  0  0  0  0  0  0  0  0
  -10.3830  -26.6002   21.9613 H   0  0  0  0  0  0  0  0  0  0  0  0
   -7.7812  -31.6560   21.2659 H   0  0  0  0  0  0  0  0  0  0  0  0
  -10.3173  -32.5193   20.6628 H   0  0  0  0  0  0  0  0  0  0  0  0
  -11.8119  -30.7763   21.6286 H   0  0  0  0  0  0  0  0  0  0  0  0
   -9.8449  -25.3653   25.0370 H   0  0  0  0  0  0  0  0  0  0  0  0
  -10.1189  -24.7363   27.2829 H   0  0  0  0  0  0  0  0  0  0  0  0
  -11.7729  -24.8438   26.7420 H   0  0  0  0  0  0  0  0  0  0  0  0
  -12.9270  -24.7003   29.4695 H   0  0  0  0  0  0  0  0  0  0  0  0
  -12.8178  -23.9882   31.8381 H   0  0  0  0  0  0  0  0  0  0  0  0
  -10.9499  -24.8426   33.2717 H   0  0  0  0  0  0  0  0  0  0  0  0
   -9.2579  -26.3432   32.2076 H   0  0  0  0  0  0  0  0  0  0  0  0
  -13.1581  -27.5023   28.7099 H   0  0  0  0  0  0  0  0  0  0  0  0
  -12.9682  -27.3293   26.9256 H   0  0  0  0  0  0  0  0  0  0  0  0
  -10.8881  -28.4813   28.9232 H   0  0  0  0  0  0  0  0  0  0  0  0
  -10.5845  -28.3384   27.1717 H   0  0  0  0  0  0  0  0  0  0  0  0
  1  2  2  0
  2  3  1  0
  3  4  1  0
  4  5  2  0
  5  6  1  0
  6  7  2  0
  7  8  1  0
  2  9  1  0
  9 10  1  0
 10 11  1  0
 11 12  1  0
 12 13  2  0
 13 14  1  0
 14 15  2  0
 15 16  1  0
 16 17  2  0
 11 18  1  0
 18 19  1  0
  8  4  1  0
 19 11  1  0
 17 12  1  0
  3 20  1  0
  3 21  1  0
  6 22  1  0
  7 23  1  0
  8 24  1  0
  9 25  1  0
 10 26  1  0
 10 27  1  0
 13 28  1  0
 14 29  1  0
 15 30  1  0
 16 31  1  0
 18 32  1  0
 18 33  1  0
 19 34  1  0
 19 35  1  0
M  END
>  <Energy>  (1177) 
366.68342617285163

>  <compound_id>  (1177) 
23262

>  <target_id>  (1177) 
1

>  <reference_id>  (1177) 
48

>  <inspiration_ids>  (1177) 
[48, 115]

>  <energy_score>  (1177) 
313.41124100589826

>  <distance_score>  (1177) 
9.079537900475515

>  <path>  (1177) 
/opt/xchem-fragalysis-2/maxwin/BulkDock/SCRATCH/511024/C23262-P48/C23262-P48.minimised.mol

>  <scratch_subdir>  (1177) 
/opt/xchem-fragalysis-2/maxwin/BulkDock/SCRATCH/511024/C23262-P48

>  <fragmenstein_runtime>  (1177) 
12.6277015209198

>  <fragmenstein_outcome>  (1177) 
too moved

>  <fragmenstein_mode>  (1177) 
expansion

>  <fragmenstein_error>  (1177) 


$$$$
C23262-P115
     RDKit          3D

 35 37  0  0  0  0  0  0  0  0999 V2000
   -9.2748  -23.3740   15.6342 O   0  0  0  0  0  0  0  0  0  0  0  0
   -9.4621  -22.1934   15.5909 C   0  0  0  0  0  0  0  0  0  0  0  0
   -9.8548  -21.8021   14.1863 C   0  0  0  0  0  0  0  0  0  0  0  0
  -10.3837  -22.8770   13.1680 C   0  0  0  0  0  0  0  0  0  0  0  0
  -11.3251  -23.7995   13.2705 N   0  0  0  0  0  0  0  0  0  0  0  0
  -11.3481  -24.4791   12.0830 C   0  0  0  0  0  0  0  0  0  0  0  0
  -10.4320  -23.9531   11.2098 C   0  0  0  0  0  0  0  0  0  0  0  0
   -9.8349  -22.9334   11.8973 N   0  0  0  0  0  0  0  0  0  0  0  0
   -9.4110  -20.9220   16.9342 N   0  0  0  0  0  0  0  0  0  0  0  0
   -9.1797  -21.0785   18.8481 C   0  0  0  0  0  0  0  0  0  0  0  0
  -10.5789  -21.1188   20.3650 C   0  0  0  0  0  0  0  0  0  0  0  0
  -10.7190  -21.2168   22.2819 C   0  0  0  0  0  0  0  0  0  0  0  0
  -10.1845  -22.2714   23.0687 C   0  0  0  0  0  0  0  0  0  0  0  0
  -10.9134  -23.1791   23.9232 C   0  0  0  0  0  0  0  0  0  0  0  0
  -12.1573  -22.8736   24.3449 C   0  0  0  0  0  0  0  0  0  0  0  0
  -12.6146  -21.7769   23.7213 C   0  0  0  0  0  0  0  0  0  0  0  0
  -11.9612  -21.0170   22.7535 N   0  0  0  0  0  0  0  0  0  0  0  0
  -11.8174  -22.0198   20.2623 C   0  0  0  0  0  0  0  0  0  0  0  0
  -10.4296  -22.4702   20.3539 C   0  0  0  0  0  0  0  0  0  0  0  0
   -8.8295  -22.0151   13.8206 H   0  0  0  0  0  0  0  0  0  0  0  0
  -10.3418  -20.8605   13.9822 H   0  0  0  0  0  0  0  0  0  0  0  0
  -12.0245  -25.3075   11.9239 H   0  0  0  0  0  0  0  0  0  0  0  0
  -10.1543  -24.2063   10.1982 H   0  0  0  0  0  0  0  0  0  0  0  0
   -9.0872  -22.3361   11.5652 H   0  0  0  0  0  0  0  0  0  0  0  0
   -9.6899  -20.0393   16.5975 H   0  0  0  0  0  0  0  0  0  0  0  0
   -9.5951  -21.9847   18.6112 H   0  0  0  0  0  0  0  0  0  0  0  0
   -9.5082  -20.1084   18.8082 H   0  0  0  0  0  0  0  0  0  0  0  0
   -9.1516  -22.5755   22.9879 H   0  0  0  0  0  0  0  0  0  0  0  0
  -10.3935  -24.0196   24.3812 H   0  0  0  0  0  0  0  0  0  0  0  0
  -12.7082  -23.4219   25.0917 H   0  0  0  0  0  0  0  0  0  0  0  0
  -13.6314  -21.4854   23.9475 H   0  0  0  0  0  0  0  0  0  0  0  0
  -12.4233  -22.3879   21.0688 H   0  0  0  0  0  0  0  0  0  0  0  0
  -12.4164  -22.1067   19.3766 H   0  0  0  0  0  0  0  0  0  0  0  0
   -9.3940  -22.1538   20.4384 H   0  0  0  0  0  0  0  0  0  0  0  0
   -9.8060  -22.5774   21.2023 H   0  0  0  0  0  0  0  0  0  0  0  0
  1  2  2  0
  2  3  1  0
  3  4  1  0
  4  5  2  0
  5  6  1  0
  6  7  2  0
  7  8  1  0
  2  9  1  0
  9 10  1  0
 10 11  1  0
 11 12  1  0
 12 13  2  0
 13 14  1  0
 14 15  2  0
 15 16  1  0
 16 17  2  0
 11 18  1  0
 18 19  1  0
  8  4  1  0
 19 11  1  0
 17 12  1  0
  3 20  1  0
  3 21  1  0
  6 22  1  0
  7 23  1  0
  8 24  1  0
  9 25  1  0
 10 26  1  0
 10 27  1  0
 13 28  1  0
 14 29  1  0
 15 30  1  0
 16 31  1  0
 18 32  1  0
 18 33  1  0
 19 34  1  0
 19 35  1  0
M  END
>  <Energy>  (1178) 
579.4804741770181

>  <compound_id>  (1178) 
23262

>  <target_id>  (1178) 
1

>  <reference_id>  (1178) 
115

>  <inspiration_ids>  (1178) 
[48, 115]

>  <energy_score>  (1178) 
526.2082890100703

>  <distance_score>  (1178) 
6.146789503829342

>  <path>  (1178) 
/opt/xchem-fragalysis-2/maxwin/BulkDock/SCRATCH/511024/C23262-P115/C23262-P115.minimised.mol

>  <scratch_subdir>  (1178) 
/opt/xchem-fragalysis-2/maxwin/BulkDock/SCRATCH/511024/C23262-P115

>  <fragmenstein_runtime>  (1178) 
21.911372184753418

>  <fragmenstein_outcome>  (1178) 
too moved

>  <fragmenstein_mode>  (1178) 
expansion

>  <fragmenstein_error>  (1178) 


$$$$
C23265-P48
     RDKit          3D

 36 38  0  0  0  0  0  0  0  0999 V2000
  -12.8272  -22.1034   24.2506 C   0  0  0  0  0  0  0  0  0  0  0  0
  -13.0396  -22.5900   23.0349 C   0  0  0  0  0  0  0  0  0  0  0  0
  -12.2385  -22.3075   21.8728 C   0  0  0  0  0  0  0  0  0  0  0  0
  -11.3281  -21.3050   21.8847 C   0  0  0  0  0  0  0  0  0  0  0  0
   -9.8237  -21.5143   21.2756 C   0  0  0  0  0  0  0  0  0  0  0  0
   -9.1525  -20.7818   19.6681 N   0  0  0  0  0  0  0  0  0  0  0  0
   -8.9408  -20.8136   17.7854 C   0  0  0  0  0  0  0  0  0  0  0  0
   -9.4910  -21.8766   16.1620 C   0  0  0  0  0  0  0  0  0  0  0  0
   -9.8230  -21.8337   14.5970 C   0  0  0  0  0  0  0  0  0  0  0  0
  -10.4112  -23.1098   13.9801 C   0  0  0  0  0  0  0  0  0  0  0  0
  -10.3740  -24.3519   14.4224 N   0  0  0  0  0  0  0  0  0  0  0  0
  -10.9778  -25.1196   13.4597 C   0  0  0  0  0  0  0  0  0  0  0  0
  -11.3787  -24.3420   12.4023 C   0  0  0  0  0  0  0  0  0  0  0  0
  -11.0048  -23.0733   12.7423 N   0  0  0  0  0  0  0  0  0  0  0  0
   -8.5587  -20.7907   22.3919 C   0  0  0  0  0  0  0  0  0  0  0  0
   -9.3197  -21.9562   22.7207 C   0  0  0  0  0  0  0  0  0  0  0  0
  -11.3770  -20.6128   23.0562 N   0  0  0  0  0  0  0  0  0  0  0  0
  -12.0513  -21.0402   24.1600 C   0  0  0  0  0  0  0  0  0  0  0  0
  -13.2709  -22.4990   25.1435 H   0  0  0  0  0  0  0  0  0  0  0  0
  -13.7858  -23.3436   23.1028 H   0  0  0  0  0  0  0  0  0  0  0  0
  -12.3126  -22.9167   20.9851 H   0  0  0  0  0  0  0  0  0  0  0  0
   -9.1096  -21.7836   19.5421 H   0  0  0  0  0  0  0  0  0  0  0  0
   -9.2245  -19.7707   17.6678 H   0  0  0  0  0  0  0  0  0  0  0  0
   -7.8544  -20.7612   17.7565 H   0  0  0  0  0  0  0  0  0  0  0  0
   -9.9053  -22.8143   16.4216 H   0  0  0  0  0  0  0  0  0  0  0  0
   -8.5495  -22.3314   15.7786 H   0  0  0  0  0  0  0  0  0  0  0  0
  -10.3889  -20.9630   14.2713 H   0  0  0  0  0  0  0  0  0  0  0  0
   -8.8728  -21.8943   14.0437 H   0  0  0  0  0  0  0  0  0  0  0  0
  -11.0822  -26.1895   13.5808 H   0  0  0  0  0  0  0  0  0  0  0  0
  -11.8764  -24.5723   11.4722 H   0  0  0  0  0  0  0  0  0  0  0  0
  -11.1224  -22.2332   12.1971 H   0  0  0  0  0  0  0  0  0  0  0  0
   -7.6422  -21.0094   22.9508 H   0  0  0  0  0  0  0  0  0  0  0  0
   -8.3537  -19.7539   22.7016 H   0  0  0  0  0  0  0  0  0  0  0  0
  -10.0256  -22.1026   23.5098 H   0  0  0  0  0  0  0  0  0  0  0  0
   -8.7334  -22.8047   23.1102 H   0  0  0  0  0  0  0  0  0  0  0  0
  -11.8830  -20.5346   25.0675 H   0  0  0  0  0  0  0  0  0  0  0  0
  1  2  2  0
  2  3  1  0
  3  4  2  0
  4  5  1  0
  5  6  1  0
  6  7  1  0
  7  8  1  0
  8  9  1  0
  9 10  1  0
 10 11  2  0
 11 12  1  0
 12 13  2  0
 13 14  1  0
  5 15  1  0
 15 16  1  0
  4 17  1  0
 17 18  2  0
 18  1  1  0
 16  5  1  0
 14 10  1  0
  1 19  1  0
  2 20  1  0
  3 21  1  0
  6 22  1  0
  7 23  1  0
  7 24  1  0
  8 25  1  0
  8 26  1  0
  9 27  1  0
  9 28  1  0
 12 29  1  0
 13 30  1  0
 14 31  1  0
 15 32  1  0
 15 33  1  0
 16 34  1  0
 16 35  1  0
 18 36  1  0
M  END
>  <Energy>  (1179) 
457.81045871090754

>  <compound_id>  (1179) 
23265

>  <target_id>  (1179) 
1

>  <reference_id>  (1179) 
48

>  <inspiration_ids>  (1179) 
[48, 115]

>  <energy_score>  (1179) 
400.1458141953185

>  <distance_score>  (1179) 
6.309308485823492

>  <path>  (1179) 
/opt/xchem-fragalysis-2/maxwin/BulkDock/SCRATCH/511024/C23265-P48/C23265-P48.minimised.mol

>  <scratch_subdir>  (1179) 
/opt/xchem-fragalysis-2/maxwin/BulkDock/SCRATCH/511024/C23265-P48

>  <fragmenstein_runtime>  (1179) 
9.380748510360718

>  <fragmenstein_outcome>  (1179) 
too moved

>  <fragmenstein_mode>  (1179) 
expansion

>  <fragmenstein_error>  (1179) 


$$$$
C23265-P115
     RDKit          3D

 36 38  0  0  0  0  0  0  0  0999 V2000
  -11.9791  -25.4874   26.9179 C   0  0  0  0  0  0  0  0  0  0  0  0
  -13.0774  -25.2293   26.1431 C   0  0  0  0  0  0  0  0  0  0  0  0
  -13.0021  -24.2322   25.1661 C   0  0  0  0  0  0  0  0  0  0  0  0
  -11.7658  -23.6581   24.7238 C   0  0  0  0  0  0  0  0  0  0  0  0
  -11.7135  -22.4635   23.3859 C   0  0  0  0  0  0  0  0  0  0  0  0
  -11.3793  -22.4616   21.6416 N   0  0  0  0  0  0  0  0  0  0  0  0
  -10.4299  -21.4698   20.8812 C   0  0  0  0  0  0  0  0  0  0  0  0
   -9.3077  -21.2685   19.3247 C   0  0  0  0  0  0  0  0  0  0  0  0
   -9.0674  -21.1201   17.3346 C   0  0  0  0  0  0  0  0  0  0  0  0
   -9.5625  -22.1758   15.6870 C   0  0  0  0  0  0  0  0  0  0  0  0
   -9.2184  -23.4430   15.2963 N   0  0  0  0  0  0  0  0  0  0  0  0
   -9.9054  -23.9111   14.1763 C   0  0  0  0  0  0  0  0  0  0  0  0
  -10.3360  -22.8132   13.5259 C   0  0  0  0  0  0  0  0  0  0  0  0
   -9.6782  -21.8494   14.3050 N   0  0  0  0  0  0  0  0  0  0  0  0
  -11.9468  -21.0949   23.7893 C   0  0  0  0  0  0  0  0  0  0  0  0
  -13.1346  -21.9404   23.4430 C   0  0  0  0  0  0  0  0  0  0  0  0
  -10.6929  -24.0787   25.4172 N   0  0  0  0  0  0  0  0  0  0  0  0
  -10.8383  -24.8314   26.5525 C   0  0  0  0  0  0  0  0  0  0  0  0
  -12.0073  -26.1518   27.7697 H   0  0  0  0  0  0  0  0  0  0  0  0
  -14.0094  -25.7456   26.3219 H   0  0  0  0  0  0  0  0  0  0  0  0
  -13.9305  -24.0043   24.6528 H   0  0  0  0  0  0  0  0  0  0  0  0
  -12.2569  -22.4174   21.1286 H   0  0  0  0  0  0  0  0  0  0  0  0
  -11.1602  -20.6823   20.7884 H   0  0  0  0  0  0  0  0  0  0  0  0
   -9.7127  -21.3682   21.6902 H   0  0  0  0  0  0  0  0  0  0  0  0
   -9.2757  -20.2117   19.3152 H   0  0  0  0  0  0  0  0  0  0  0  0
   -9.9041  -22.1607   19.2530 H   0  0  0  0  0  0  0  0  0  0  0  0
   -9.4390  -20.1205   17.2067 H   0  0  0  0  0  0  0  0  0  0  0  0
   -9.6429  -21.9472   17.4826 H   0  0  0  0  0  0  0  0  0  0  0  0
   -9.9538  -24.9603   13.9249 H   0  0  0  0  0  0  0  0  0  0  0  0
  -10.8174  -22.5845   12.5892 H   0  0  0  0  0  0  0  0  0  0  0  0
   -8.7248  -21.9551   14.0298 H   0  0  0  0  0  0  0  0  0  0  0  0
  -11.8333  -20.8487   24.8215 H   0  0  0  0  0  0  0  0  0  0  0  0
  -11.4021  -20.4794   23.1150 H   0  0  0  0  0  0  0  0  0  0  0  0
  -13.8575  -22.0556   24.2276 H   0  0  0  0  0  0  0  0  0  0  0  0
  -13.5627  -22.3938   22.5815 H   0  0  0  0  0  0  0  0  0  0  0  0
   -9.9525  -24.9125   27.1738 H   0  0  0  0  0  0  0  0  0  0  0  0
  1  2  2  0
  2  3  1  0
  3  4  2  0
  4  5  1  0
  5  6  1  0
  6  7  1  0
  7  8  1  0
  8  9  1  0
  9 10  1  0
 10 11  2  0
 11 12  1  0
 12 13  2  0
 13 14  1  0
  5 15  1  0
 15 16  1  0
  4 17  1  0
 17 18  2  0
 18  1  1  0
 16  5  1  0
 14 10  1  0
  1 19  1  0
  2 20  1  0
  3 21  1  0
  6 22  1  0
  7 23  1  0
  7 24  1  0
  8 25  1  0
  8 26  1  0
  9 27  1  0
  9 28  1  0
 12 29  1  0
 13 30  1  0
 14 31  1  0
 15 32  1  0
 15 33  1  0
 16 34  1  0
 16 35  1  0
 18 36  1  0
M  END
>  <Energy>  (1180) 
508.09945123708883

>  <compound_id>  (1180) 
23265

>  <target_id>  (1180) 
1

>  <reference_id>  (1180) 
115

>  <inspiration_ids>  (1180) 
[48, 115]

>  <energy_score>  (1180) 
450.4348067215052

>  <distance_score>  (1180) 
5.444935991218928

>  <path>  (1180) 
/opt/xchem-fragalysis-2/maxwin/BulkDock/SCRATCH/511024/C23265-P115/C23265-P115.minimised.mol

>  <scratch_subdir>  (1180) 
/opt/xchem-fragalysis-2/maxwin/BulkDock/SCRATCH/511024/C23265-P115

>  <fragmenstein_runtime>  (1180) 
11.887056350708008

>  <fragmenstein_outcome>  (1180) 
too moved

>  <fragmenstein_mode>  (1180) 
expansion

>  <fragmenstein_error>  (1180) 


$$$$
C23269-P48
     RDKit          3D

 36 38  0  0  0  0  0  0  0  0999 V2000
  -11.0181  -21.4245   16.3421 O   0  0  0  0  0  0  0  0  0  0  0  0
  -12.6991  -21.2291   17.1557 C   0  0  0  0  0  0  0  0  0  0  0  0
  -14.0498  -20.7736   15.7175 C   0  0  0  0  0  0  0  0  0  0  0  0
  -14.6438  -21.2672   14.3213 C   0  0  0  0  0  0  0  0  0  0  0  0
  -14.6906  -22.6893   13.8776 C   0  0  0  0  0  0  0  0  0  0  0  0
  -13.8733  -23.7064   14.0694 N   0  0  0  0  0  0  0  0  0  0  0  0
  -14.3923  -24.7724   13.3849 C   0  0  0  0  0  0  0  0  0  0  0  0
  -15.5861  -24.4285   12.8067 C   0  0  0  0  0  0  0  0  0  0  0  0
  -15.7857  -23.1196   13.1552 N   0  0  0  0  0  0  0  0  0  0  0  0
  -13.1931  -21.4994   18.6819 N   0  0  0  0  0  0  0  0  0  0  0  0
  -12.3511  -22.2166   20.2034 C   0  0  0  0  0  0  0  0  0  0  0  0
  -12.2657  -22.0479   21.8689 C   0  0  0  0  0  0  0  0  0  0  0  0
  -11.1104  -21.4799   22.2448 C   0  0  0  0  0  0  0  0  0  0  0  0
  -11.1509  -20.8989   23.4551 C   0  0  0  0  0  0  0  0  0  0  0  0
  -11.9785  -21.1450   24.4714 N   0  0  0  0  0  0  0  0  0  0  0  0
  -12.6800  -22.2288   24.3517 C   0  0  0  0  0  0  0  0  0  0  0  0
  -12.9417  -23.1130   25.5983 C   0  0  0  0  0  0  0  0  0  0  0  0
  -11.8595  -24.0275   26.1876 C   0  0  0  0  0  0  0  0  0  0  0  0
  -12.2079  -22.7883   26.9053 C   0  0  0  0  0  0  0  0  0  0  0  0
  -13.0267  -22.4874   23.0284 C   0  0  0  0  0  0  0  0  0  0  0  0
  -14.0016  -21.9781   16.0487 H   0  0  0  0  0  0  0  0  0  0  0  0
  -15.4513  -20.7098   13.8794 H   0  0  0  0  0  0  0  0  0  0  0  0
  -13.8791  -25.7248   13.3506 H   0  0  0  0  0  0  0  0  0  0  0  0
  -16.2906  -24.9790   12.2000 H   0  0  0  0  0  0  0  0  0  0  0  0
  -16.5741  -22.5472   12.8864 H   0  0  0  0  0  0  0  0  0  0  0  0
  -14.1353  -21.1818   18.7477 H   0  0  0  0  0  0  0  0  0  0  0  0
  -12.5660  -23.2900   20.1959 H   0  0  0  0  0  0  0  0  0  0  0  0
  -11.3811  -21.7912   20.0816 H   0  0  0  0  0  0  0  0  0  0  0  0
  -10.2719  -21.3678   21.5806 H   0  0  0  0  0  0  0  0  0  0  0  0
  -10.4508  -20.1341   23.6458 H   0  0  0  0  0  0  0  0  0  0  0  0
  -13.9610  -23.4661   25.6706 H   0  0  0  0  0  0  0  0  0  0  0  0
  -10.8503  -24.0674   25.8016 H   0  0  0  0  0  0  0  0  0  0  0  0
  -12.1787  -24.9633   26.6332 H   0  0  0  0  0  0  0  0  0  0  0  0
  -12.5009  -22.9976   27.9115 H   0  0  0  0  0  0  0  0  0  0  0  0
  -11.5810  -21.9123   26.9255 H   0  0  0  0  0  0  0  0  0  0  0  0
  -13.8635  -23.1362   23.0000 H   0  0  0  0  0  0  0  0  0  0  0  0
  1  2  2  0
  2  3  1  0
  3  4  2  3
  4  5  1  0
  5  6  2  0
  6  7  1  0
  7  8  2  0
  8  9  1  0
  2 10  1  0
 10 11  1  0
 11 12  1  0
 12 13  2  0
 13 14  1  0
 14 15  2  0
 15 16  1  0
 16 17  1  0
 17 18  1  0
 18 19  1  0
 16 20  2  0
  9  5  1  0
 20 12  1  0
 19 17  1  0
  3 21  1  0
  4 22  1  0
  7 23  1  0
  8 24  1  0
  9 25  1  0
 10 26  1  0
 11 27  1  0
 11 28  1  0
 13 29  1  0
 14 30  1  0
 17 31  1  0
 18 32  1  0
 18 33  1  0
 19 34  1  0
 19 35  1  0
 20 36  1  0
M  END
>  <Energy>  (1181) 
588.74667989195825

>  <compound_id>  (1181) 
23269

>  <target_id>  (1181) 
1

>  <reference_id>  (1181) 
48

>  <inspiration_ids>  (1181) 
[48, 115]

>  <energy_score>  (1181) 
590.5125080233979

>  <distance_score>  (1181) 
6.444746470423631

>  <path>  (1181) 
/opt/xchem-fragalysis-2/maxwin/BulkDock/SCRATCH/511024/C23269-P48/C23269-P48.minimised.mol

>  <scratch_subdir>  (1181) 
/opt/xchem-fragalysis-2/maxwin/BulkDock/SCRATCH/511024/C23269-P48

>  <fragmenstein_runtime>  (1181) 
14.33856463432312

>  <fragmenstein_outcome>  (1181) 
too moved

>  <fragmenstein_mode>  (1181) 
expansion

>  <fragmenstein_error>  (1181) 


$$$$
C23269-P115
     RDKit          3D

 36 38  0  0  0  0  0  0  0  0999 V2000
  -11.6698  -21.9629   19.9596 O   0  0  0  0  0  0  0  0  0  0  0  0
  -10.6438  -21.6445   20.4625 C   0  0  0  0  0  0  0  0  0  0  0  0
   -9.3266  -21.1242   19.1575 C   0  0  0  0  0  0  0  0  0  0  0  0
   -9.0834  -21.0804   17.5652 C   0  0  0  0  0  0  0  0  0  0  0  0
   -9.5751  -21.9744   15.9793 C   0  0  0  0  0  0  0  0  0  0  0  0
   -9.2809  -23.2000   15.4170 N   0  0  0  0  0  0  0  0  0  0  0  0
   -9.7254  -23.4494   14.1473 C   0  0  0  0  0  0  0  0  0  0  0  0
  -10.0594  -22.2663   13.6259 C   0  0  0  0  0  0  0  0  0  0  0  0
   -9.9594  -21.4151   14.7229 N   0  0  0  0  0  0  0  0  0  0  0  0
  -10.3017  -21.5023   21.8283 N   0  0  0  0  0  0  0  0  0  0  0  0
  -11.1266  -21.6015   23.0479 C   0  0  0  0  0  0  0  0  0  0  0  0
  -11.8477  -22.7287   23.8329 C   0  0  0  0  0  0  0  0  0  0  0  0
  -13.2452  -22.7139   23.9158 C   0  0  0  0  0  0  0  0  0  0  0  0
  -13.9394  -23.6062   24.7380 C   0  0  0  0  0  0  0  0  0  0  0  0
  -13.3562  -24.4295   25.6240 N   0  0  0  0  0  0  0  0  0  0  0  0
  -12.0140  -24.3822   25.7025 C   0  0  0  0  0  0  0  0  0  0  0  0
  -11.3422  -24.9638   26.9240 C   0  0  0  0  0  0  0  0  0  0  0  0
  -10.8347  -26.3718   26.9636 C   0  0  0  0  0  0  0  0  0  0  0  0
  -12.0541  -26.0164   27.7500 C   0  0  0  0  0  0  0  0  0  0  0  0
  -11.2749  -23.6922   24.7108 C   0  0  0  0  0  0  0  0  0  0  0  0
   -8.7484  -20.4052   19.6944 H   0  0  0  0  0  0  0  0  0  0  0  0
   -8.1542  -20.5551   17.4627 H   0  0  0  0  0  0  0  0  0  0  0  0
   -9.6946  -24.4311   13.7000 H   0  0  0  0  0  0  0  0  0  0  0  0
  -10.3916  -21.9213   12.6598 H   0  0  0  0  0  0  0  0  0  0  0  0
  -10.2215  -20.4584   14.6540 H   0  0  0  0  0  0  0  0  0  0  0  0
   -9.3661  -21.1349   21.8922 H   0  0  0  0  0  0  0  0  0  0  0  0
  -10.7767  -20.8352   23.7271 H   0  0  0  0  0  0  0  0  0  0  0  0
  -11.9966  -21.0946   22.6357 H   0  0  0  0  0  0  0  0  0  0  0  0
  -13.8204  -21.9963   23.3703 H   0  0  0  0  0  0  0  0  0  0  0  0
  -15.0230  -23.6277   24.7383 H   0  0  0  0  0  0  0  0  0  0  0  0
  -10.7922  -24.2302   27.5119 H   0  0  0  0  0  0  0  0  0  0  0  0
   -9.9225  -26.5392   27.5223 H   0  0  0  0  0  0  0  0  0  0  0  0
  -10.9598  -26.9830   26.0804 H   0  0  0  0  0  0  0  0  0  0  0  0
  -13.0103  -26.3855   27.4004 H   0  0  0  0  0  0  0  0  0  0  0  0
  -11.9739  -25.9319   28.8271 H   0  0  0  0  0  0  0  0  0  0  0  0
  -10.2263  -23.9300   24.6447 H   0  0  0  0  0  0  0  0  0  0  0  0
  1  2  2  0
  2  3  1  0
  3  4  2  3
  4  5  1  0
  5  6  2  0
  6  7  1  0
  7  8  2  0
  8  9  1  0
  2 10  1  0
 10 11  1  0
 11 12  1  0
 12 13  2  0
 13 14  1  0
 14 15  2  0
 15 16  1  0
 16 17  1  0
 17 18  1  0
 18 19  1  0
 16 20  2  0
  9  5  1  0
 20 12  1  0
 19 17  1  0
  3 21  1  0
  4 22  1  0
  7 23  1  0
  8 24  1  0
  9 25  1  0
 10 26  1  0
 11 27  1  0
 11 28  1  0
 13 29  1  0
 14 30  1  0
 17 31  1  0
 18 32  1  0
 18 33  1  0
 19 34  1  0
 19 35  1  0
 20 36  1  0
M  END
>  <Energy>  (1182) 
229.2171078057809

>  <compound_id>  (1182) 
23269

>  <target_id>  (1182) 
1

>  <reference_id>  (1182) 
115

>  <inspiration_ids>  (1182) 
[48, 115]

>  <energy_score>  (1182) 
230.98293593722144

>  <distance_score>  (1182) 
5.840809254830708

>  <path>  (1182) 
/opt/xchem-fragalysis-2/maxwin/BulkDock/SCRATCH/511024/C23269-P115/C23269-P115.minimised.mol

>  <scratch_subdir>  (1182) 
/opt/xchem-fragalysis-2/maxwin/BulkDock/SCRATCH/511024/C23269-P115

>  <fragmenstein_runtime>  (1182) 
16.67866563796997

>  <fragmenstein_outcome>  (1182) 
too moved

>  <fragmenstein_mode>  (1182) 
expansion

>  <fragmenstein_error>  (1182) 


$$$$
C23270-P48
     RDKit          3D

 41 43  0  0  0  0  0  0  0  0999 V2000
  -10.5491  -20.3994   23.1840 O   0  0  0  0  0  0  0  0  0  0  0  0
  -11.1064  -21.2252   22.5259 C   0  0  0  0  0  0  0  0  0  0  0  0
  -10.7712  -21.6808   21.0362 N   0  0  0  0  0  0  0  0  0  0  0  0
   -9.4036  -21.2102   19.9247 C   0  0  0  0  0  0  0  0  0  0  0  0
   -8.9148  -20.9684   17.9644 C   0  0  0  0  0  0  0  0  0  0  0  0
   -9.5350  -21.7868   16.2740 C   0  0  0  0  0  0  0  0  0  0  0  0
   -9.1617  -22.3478   14.8231 C   0  0  0  0  0  0  0  0  0  0  0  0
  -10.0120  -23.4631   14.1778 C   0  0  0  0  0  0  0  0  0  0  0  0
  -10.7804  -23.2983   13.1090 N   0  0  0  0  0  0  0  0  0  0  0  0
  -11.3369  -24.5149   12.8225 C   0  0  0  0  0  0  0  0  0  0  0  0
  -10.8906  -25.4597   13.7067 C   0  0  0  0  0  0  0  0  0  0  0  0
  -10.0483  -24.7849   14.5484 N   0  0  0  0  0  0  0  0  0  0  0  0
  -12.2776  -21.9904   23.4644 C   0  0  0  0  0  0  0  0  0  0  0  0
  -12.1980  -21.6418   24.7851 C   0  0  0  0  0  0  0  0  0  0  0  0
  -12.4313  -22.5101   25.9042 C   0  0  0  0  0  0  0  0  0  0  0  0
  -13.1478  -23.6211   25.8374 N   0  0  0  0  0  0  0  0  0  0  0  0
  -13.7547  -23.7589   24.6628 C   0  0  0  0  0  0  0  0  0  0  0  0
  -14.4432  -25.1457   24.4552 C   0  0  0  0  0  0  0  0  0  0  0  0
  -14.5795  -26.2414   25.4719 C   0  0  0  0  0  0  0  0  0  0  0  0
  -15.7999  -25.4972   24.9816 C   0  0  0  0  0  0  0  0  0  0  0  0
  -13.3276  -22.8688   23.5089 C   0  0  0  0  0  0  0  0  0  0  0  0
  -11.3592  -22.4438   20.7903 H   0  0  0  0  0  0  0  0  0  0  0  0
   -8.6742  -20.9828   20.6757 H   0  0  0  0  0  0  0  0  0  0  0  0
   -9.6159  -20.2102   19.7769 H   0  0  0  0  0  0  0  0  0  0  0  0
   -7.8386  -20.8074   17.8692 H   0  0  0  0  0  0  0  0  0  0  0  0
   -9.2180  -19.9538   17.7569 H   0  0  0  0  0  0  0  0  0  0  0  0
   -9.9451  -22.7277   16.4835 H   0  0  0  0  0  0  0  0  0  0  0  0
  -10.0189  -20.9361   15.8444 H   0  0  0  0  0  0  0  0  0  0  0  0
   -9.5325  -21.5987   14.1312 H   0  0  0  0  0  0  0  0  0  0  0  0
   -8.1023  -22.4130   14.6603 H   0  0  0  0  0  0  0  0  0  0  0  0
  -12.0164  -24.6410   11.9903 H   0  0  0  0  0  0  0  0  0  0  0  0
  -11.0742  -26.5195   13.8018 H   0  0  0  0  0  0  0  0  0  0  0  0
   -9.5075  -25.2081   15.2845 H   0  0  0  0  0  0  0  0  0  0  0  0
  -11.7954  -20.6741   25.0035 H   0  0  0  0  0  0  0  0  0  0  0  0
  -12.1018  -22.2214   26.9019 H   0  0  0  0  0  0  0  0  0  0  0  0
  -14.1563  -25.6314   23.5406 H   0  0  0  0  0  0  0  0  0  0  0  0
  -14.4916  -27.2733   25.1409 H   0  0  0  0  0  0  0  0  0  0  0  0
  -14.0561  -26.0938   26.3990 H   0  0  0  0  0  0  0  0  0  0  0  0
  -16.3229  -24.7713   25.5842 H   0  0  0  0  0  0  0  0  0  0  0  0
  -16.4783  -26.0288   24.3196 H   0  0  0  0  0  0  0  0  0  0  0  0
  -13.6990  -23.0270   22.5531 H   0  0  0  0  0  0  0  0  0  0  0  0
  1  2  2  0
  2  3  1  0
  3  4  1  0
  4  5  1  0
  5  6  1  0
  6  7  1  0
  7  8  1  0
  8  9  2  0
  9 10  1  0
 10 11  2  0
 11 12  1  0
  2 13  1  0
 13 14  2  0
 14 15  1  0
 15 16  2  0
 16 17  1  0
 17 18  1  0
 18 19  1  0
 19 20  1  0
 17 21  2  0
 12  8  1  0
 21 13  1  0
 20 18  1  0
  3 22  1  0
  4 23  1  0
  4 24  1  0
  5 25  1  0
  5 26  1  0
  6 27  1  0
  6 28  1  0
  7 29  1  0
  7 30  1  0
 10 31  1  0
 11 32  1  0
 12 33  1  0
 14 34  1  0
 15 35  1  0
 18 36  1  0
 19 37  1  0
 19 38  1  0
 20 39  1  0
 20 40  1  0
 21 41  1  0
M  END
>  <Energy>  (1183) 
355.76710488086337

>  <compound_id>  (1183) 
23270

>  <target_id>  (1183) 
1

>  <reference_id>  (1183) 
48

>  <inspiration_ids>  (1183) 
[48, 115]

>  <energy_score>  (1183) 
336.264042126676

>  <distance_score>  (1183) 
5.2491598637765575

>  <path>  (1183) 
/opt/xchem-fragalysis-2/maxwin/BulkDock/SCRATCH/511024/C23270-P48/C23270-P48.minimised.mol

>  <scratch_subdir>  (1183) 
/opt/xchem-fragalysis-2/maxwin/BulkDock/SCRATCH/511024/C23270-P48

>  <fragmenstein_runtime>  (1183) 
15.485007286071777

>  <fragmenstein_outcome>  (1183) 
too moved

>  <fragmenstein_mode>  (1183) 
expansion

>  <fragmenstein_error>  (1183) 


$$$$
C23270-P115
     RDKit          3D

 41 43  0  0  0  0  0  0  0  0999 V2000
   -9.3599  -22.9923   23.2333 O   0  0  0  0  0  0  0  0  0  0  0  0
  -10.5333  -22.7476   23.1909 C   0  0  0  0  0  0  0  0  0  0  0  0
  -11.3264  -22.0522   22.1746 N   0  0  0  0  0  0  0  0  0  0  0  0
  -10.9337  -21.4933   20.7702 C   0  0  0  0  0  0  0  0  0  0  0  0
   -9.4922  -21.4533   19.5892 C   0  0  0  0  0  0  0  0  0  0  0  0
   -9.1067  -21.1599   17.6275 C   0  0  0  0  0  0  0  0  0  0  0  0
   -9.6026  -22.0020   15.8538 C   0  0  0  0  0  0  0  0  0  0  0  0
   -9.8400  -23.2121   14.6804 C   0  0  0  0  0  0  0  0  0  0  0  0
  -10.0974  -24.5164   14.7073 N   0  0  0  0  0  0  0  0  0  0  0  0
  -10.3487  -24.9391   13.4282 C   0  0  0  0  0  0  0  0  0  0  0  0
  -10.2879  -23.8838   12.5635 C   0  0  0  0  0  0  0  0  0  0  0  0
   -9.9637  -22.8103   13.3466 N   0  0  0  0  0  0  0  0  0  0  0  0
  -11.3714  -23.4180   24.4482 C   0  0  0  0  0  0  0  0  0  0  0  0
  -12.0516  -22.5078   25.1619 C   0  0  0  0  0  0  0  0  0  0  0  0
  -11.8359  -22.5580   26.5733 C   0  0  0  0  0  0  0  0  0  0  0  0
  -11.5105  -23.5992   27.2871 N   0  0  0  0  0  0  0  0  0  0  0  0
  -11.4022  -24.6910   26.5767 C   0  0  0  0  0  0  0  0  0  0  0  0
  -11.6606  -25.8471   27.4448 C   0  0  0  0  0  0  0  0  0  0  0  0
  -11.1490  -27.1824   27.2023 C   0  0  0  0  0  0  0  0  0  0  0  0
  -10.5194  -26.3504   28.2870 C   0  0  0  0  0  0  0  0  0  0  0  0
  -11.1241  -24.6092   25.1913 C   0  0  0  0  0  0  0  0  0  0  0  0
  -12.3000  -22.0997   22.4269 H   0  0  0  0  0  0  0  0  0  0  0  0
  -11.3544  -20.5122   20.8385 H   0  0  0  0  0  0  0  0  0  0  0  0
  -11.7136  -22.0061   20.2011 H   0  0  0  0  0  0  0  0  0  0  0  0
   -9.9921  -22.3384   19.3393 H   0  0  0  0  0  0  0  0  0  0  0  0
   -9.3428  -20.4275   19.5935 H   0  0  0  0  0  0  0  0  0  0  0  0
   -9.3874  -20.1158   17.4893 H   0  0  0  0  0  0  0  0  0  0  0  0
   -8.0276  -20.9476   17.6370 H   0  0  0  0  0  0  0  0  0  0  0  0
   -8.6089  -22.3236   15.4307 H   0  0  0  0  0  0  0  0  0  0  0  0
   -9.9508  -21.1521   15.2619 H   0  0  0  0  0  0  0  0  0  0  0  0
  -10.5613  -25.9767   13.2113 H   0  0  0  0  0  0  0  0  0  0  0  0
  -10.4293  -23.7940   11.4975 H   0  0  0  0  0  0  0  0  0  0  0  0
   -9.9009  -21.8583   13.0267 H   0  0  0  0  0  0  0  0  0  0  0  0
  -12.2161  -21.5350   24.6873 H   0  0  0  0  0  0  0  0  0  0  0  0
  -11.8387  -21.6689   27.1898 H   0  0  0  0  0  0  0  0  0  0  0  0
  -12.6246  -25.8118   27.9497 H   0  0  0  0  0  0  0  0  0  0  0  0
  -11.7588  -27.9981   27.5647 H   0  0  0  0  0  0  0  0  0  0  0  0
  -10.6321  -27.3365   26.2643 H   0  0  0  0  0  0  0  0  0  0  0  0
  -10.7319  -26.5868   29.3233 H   0  0  0  0  0  0  0  0  0  0  0  0
   -9.5285  -25.9475   28.1261 H   0  0  0  0  0  0  0  0  0  0  0  0
  -10.7282  -25.4914   24.7283 H   0  0  0  0  0  0  0  0  0  0  0  0
  1  2  2  0
  2  3  1  0
  3  4  1  0
  4  5  1  0
  5  6  1  0
  6  7  1  0
  7  8  1  0
  8  9  2  0
  9 10  1  0
 10 11  2  0
 11 12  1  0
  2 13  1  0
 13 14  2  0
 14 15  1  0
 15 16  2  0
 16 17  1  0
 17 18  1  0
 18 19  1  0
 19 20  1  0
 17 21  2  0
 12  8  1  0
 21 13  1  0
 20 18  1  0
  3 22  1  0
  4 23  1  0
  4 24  1  0
  5 25  1  0
  5 26  1  0
  6 27  1  0
  6 28  1  0
  7 29  1  0
  7 30  1  0
 10 31  1  0
 11 32  1  0
 12 33  1  0
 14 34  1  0
 15 35  1  0
 18 36  1  0
 19 37  1  0
 19 38  1  0
 20 39  1  0
 20 40  1  0
 21 41  1  0
M  END
>  <Energy>  (1184) 
400.8913232363106

>  <compound_id>  (1184) 
23270

>  <target_id>  (1184) 
1

>  <reference_id>  (1184) 
115

>  <inspiration_ids>  (1184) 
[48, 115]

>  <energy_score>  (1184) 
381.38826048213105

>  <distance_score>  (1184) 
4.452565687935645

>  <path>  (1184) 
/opt/xchem-fragalysis-2/maxwin/BulkDock/SCRATCH/511024/C23270-P115/C23270-P115.minimised.mol

>  <scratch_subdir>  (1184) 
/opt/xchem-fragalysis-2/maxwin/BulkDock/SCRATCH/511024/C23270-P115

>  <fragmenstein_runtime>  (1184) 
20.591061115264893

>  <fragmenstein_outcome>  (1184) 
too moved

>  <fragmenstein_mode>  (1184) 
expansion

>  <fragmenstein_error>  (1184) 


$$$$
C81073-P54
     RDKit          3D

 35 37  0  0  0  0  0  0  0  0999 V2000
   -5.5710  -20.2025   26.6467 C   0  0  0  0  0  0  0  0  0  0  0  0
   -6.2596  -18.9660   26.8618 O   0  0  0  0  0  0  0  0  0  0  0  0
   -5.5248  -17.8721   26.3359 C   0  0  0  0  0  0  0  0  0  0  0  0
   -5.4137  -16.3445   26.8788 C   0  0  0  0  0  0  0  0  0  0  0  0
   -6.2623  -15.7144   27.8651 N   0  0  0  0  0  0  0  0  0  0  0  0
   -5.7069  -14.4301   28.4690 C   0  0  0  0  0  0  0  0  0  0  0  0
   -4.2581  -13.7973   28.1167 C   0  0  0  0  0  0  0  0  0  0  0  0
   -3.5104  -14.3193   26.6654 C   0  0  0  0  0  0  0  0  0  0  0  0
   -1.8156  -13.4426   26.2423 C   0  0  0  0  0  0  0  0  0  0  0  0
    0.0040  -13.5365   26.8012 O   0  0  0  0  0  0  0  0  0  0  0  0
    1.0599  -14.6935   26.5623 C   0  0  0  0  0  0  0  0  0  0  0  0
    0.7177  -15.8644   26.7640 O   0  0  0  0  0  0  0  0  0  0  0  0
    2.7022  -14.5608   25.8820 C   0  0  0  0  0  0  0  0  0  0  0  0
    3.3939  -15.8081   25.3714 C   0  0  0  0  0  0  0  0  0  0  0  0
    4.5275  -15.6539   24.6393 C   0  0  0  0  0  0  0  0  0  0  0  0
    5.0599  -14.3906   24.3847 N   0  0  0  0  0  0  0  0  0  0  0  0
    6.1206  -13.9747   23.6105 C   0  0  0  0  0  0  0  0  0  0  0  0
    6.1096  -12.6007   23.6832 C   0  0  0  0  0  0  0  0  0  0  0  0
    5.0848  -12.1740   24.4893 N   0  0  0  0  0  0  0  0  0  0  0  0
    4.4680  -13.2678   24.9186 C   0  0  0  0  0  0  0  0  0  0  0  0
    3.3064  -13.4105   25.6598 N   0  0  0  0  0  0  0  0  0  0  0  0
   -3.9871  -15.5456   26.3046 N   0  0  0  0  0  0  0  0  0  0  0  0
   -4.5920  -20.2020   27.1371 H   0  0  0  0  0  0  0  0  0  0  0  0
   -6.1925  -20.9409   27.1215 H   0  0  0  0  0  0  0  0  0  0  0  0
   -5.4516  -20.4216   25.5833 H   0  0  0  0  0  0  0  0  0  0  0  0
   -4.4793  -18.2101   26.3147 H   0  0  0  0  0  0  0  0  0  0  0  0
   -5.8950  -17.8626   25.3160 H   0  0  0  0  0  0  0  0  0  0  0  0
   -6.2912  -14.0640   29.3090 H   0  0  0  0  0  0  0  0  0  0  0  0
   -3.5735  -13.0838   28.5151 H   0  0  0  0  0  0  0  0  0  0  0  0
   -1.9629  -12.5584   26.8816 H   0  0  0  0  0  0  0  0  0  0  0  0
   -1.9644  -12.9273   25.3043 H   0  0  0  0  0  0  0  0  0  0  0  0
    2.9344  -16.7683   25.5690 H   0  0  0  0  0  0  0  0  0  0  0  0
    5.0502  -16.4977   24.2055 H   0  0  0  0  0  0  0  0  0  0  0  0
    6.7534  -14.6729   23.0837 H   0  0  0  0  0  0  0  0  0  0  0  0
    6.7781  -11.8986   23.2035 H   0  0  0  0  0  0  0  0  0  0  0  0
  1  2  1  0
  2  3  1  0
  3  4  1  0
  4  5  2  0
  5  6  1  0
  6  7  2  0
  7  8  1  0
  8  9  1  0
  9 10  1  0
 10 11  1  0
 11 12  2  0
 11 13  1  0
 13 14  1  0
 14 15  2  0
 15 16  1  0
 16 17  1  0
 17 18  2  0
 18 19  1  0
 19 20  2  0
 20 21  1  0
  8 22  2  0
 22  4  1  0
 21 13  2  0
 20 16  1  0
  1 23  1  0
  1 24  1  0
  1 25  1  0
  3 26  1  0
  3 27  1  0
  6 28  1  0
  7 29  1  0
  9 30  1  0
  9 31  1  0
 14 32  1  0
 15 33  1  0
 17 34  1  0
 18 35  1  0
M  END
>  <Energy>  (1185) 
426.6242765548929

>  <compound_id>  (1185) 
81073

>  <target_id>  (1185) 
1

>  <reference_id>  (1185) 
54

>  <inspiration_ids>  (1185) 
[54, 106]

>  <energy_score>  (1185) 
287.23163226662535

>  <distance_score>  (1185) 
14.778315541091107

>  <path>  (1185) 
/opt/xchem-fragalysis-2/maxwin/BulkDock/SCRATCH/511024/C81073-P54/C81073-P54.minimised.mol

>  <scratch_subdir>  (1185) 
/opt/xchem-fragalysis-2/maxwin/BulkDock/SCRATCH/511024/C81073-P54

>  <fragmenstein_runtime>  (1185) 
9.18161153793335

>  <fragmenstein_outcome>  (1185) 
too moved

>  <fragmenstein_mode>  (1185) 
expansion

>  <fragmenstein_error>  (1185) 


$$$$
C81073-P106
     RDKit          3D

 35 37  0  0  0  0  0  0  0  0999 V2000
  -10.4605  -16.4545   22.9837 C   0  0  0  0  0  0  0  0  0  0  0  0
  -10.0118  -15.1205   22.7727 O   0  0  0  0  0  0  0  0  0  0  0  0
  -10.5228  -14.4829   21.5652 C   0  0  0  0  0  0  0  0  0  0  0  0
  -10.3712  -12.9180   21.5489 C   0  0  0  0  0  0  0  0  0  0  0  0
  -10.9411  -12.3114   22.6016 N   0  0  0  0  0  0  0  0  0  0  0  0
  -10.8210  -10.9725   22.6545 C   0  0  0  0  0  0  0  0  0  0  0  0
  -10.2159  -10.1797   21.6859 C   0  0  0  0  0  0  0  0  0  0  0  0
   -9.6779  -10.8065   20.5781 C   0  0  0  0  0  0  0  0  0  0  0  0
   -9.2193   -9.8322   19.3072 C   0  0  0  0  0  0  0  0  0  0  0  0
   -8.2907   -8.5857   19.4450 O   0  0  0  0  0  0  0  0  0  0  0  0
   -7.9682   -7.7843   18.3412 C   0  0  0  0  0  0  0  0  0  0  0  0
   -8.7117   -7.7180   17.3715 O   0  0  0  0  0  0  0  0  0  0  0  0
   -6.4537   -6.9829   18.2855 C   0  0  0  0  0  0  0  0  0  0  0  0
   -6.1717   -5.8442   19.2555 C   0  0  0  0  0  0  0  0  0  0  0  0
   -4.9261   -5.3168   19.2593 C   0  0  0  0  0  0  0  0  0  0  0  0
   -3.9701   -5.7749   18.3618 N   0  0  0  0  0  0  0  0  0  0  0  0
   -2.6530   -5.4092   18.1902 C   0  0  0  0  0  0  0  0  0  0  0  0
   -2.2021   -6.1733   17.1421 C   0  0  0  0  0  0  0  0  0  0  0  0
   -3.2104   -6.9851   16.6707 N   0  0  0  0  0  0  0  0  0  0  0  0
   -4.2776   -6.7611   17.4269 C   0  0  0  0  0  0  0  0  0  0  0  0
   -5.5363   -7.3616   17.4046 N   0  0  0  0  0  0  0  0  0  0  0  0
   -9.7365  -12.2095   20.5160 N   0  0  0  0  0  0  0  0  0  0  0  0
   -9.9752  -16.8372   23.8837 H   0  0  0  0  0  0  0  0  0  0  0  0
  -10.1835  -17.0836   22.1332 H   0  0  0  0  0  0  0  0  0  0  0  0
  -11.5443  -16.4691   23.1283 H   0  0  0  0  0  0  0  0  0  0  0  0
   -9.9950  -14.8980   20.7004 H   0  0  0  0  0  0  0  0  0  0  0  0
  -11.5927  -14.7009   21.4684 H   0  0  0  0  0  0  0  0  0  0  0  0
  -11.2632  -10.5118   23.5355 H   0  0  0  0  0  0  0  0  0  0  0  0
  -10.2054   -9.1007   21.7888 H   0  0  0  0  0  0  0  0  0  0  0  0
  -10.1516   -9.4596   18.8685 H   0  0  0  0  0  0  0  0  0  0  0  0
   -8.7192  -10.4934   18.5919 H   0  0  0  0  0  0  0  0  0  0  0  0
   -6.9570   -5.5404   19.9348 H   0  0  0  0  0  0  0  0  0  0  0  0
   -4.6248   -4.5344   19.9444 H   0  0  0  0  0  0  0  0  0  0  0  0
   -2.1746   -4.6689   18.8136 H   0  0  0  0  0  0  0  0  0  0  0  0
   -1.2152   -6.1912   16.6985 H   0  0  0  0  0  0  0  0  0  0  0  0
  1  2  1  0
  2  3  1  0
  3  4  1  0
  4  5  2  0
  5  6  1  0
  6  7  2  0
  7  8  1  0
  8  9  1  0
  9 10  1  0
 10 11  1  0
 11 12  2  0
 11 13  1  0
 13 14  1  0
 14 15  2  0
 15 16  1  0
 16 17  1  0
 17 18  2  0
 18 19  1  0
 19 20  2  0
 20 21  1  0
  8 22  2  0
 22  4  1  0
 21 13  2  0
 20 16  1  0
  1 23  1  0
  1 24  1  0
  1 25  1  0
  3 26  1  0
  3 27  1  0
  6 28  1  0
  7 29  1  0
  9 30  1  0
  9 31  1  0
 14 32  1  0
 15 33  1  0
 17 34  1  0
 18 35  1  0
M  END
>  <Energy>  (1186) 
150.79070104313078

>  <compound_id>  (1186) 
81073

>  <target_id>  (1186) 
1

>  <reference_id>  (1186) 
106

>  <inspiration_ids>  (1186) 
[54, 106]

>  <energy_score>  (1186) 
11.398056754869572

>  <distance_score>  (1186) 
16.559785858838495

>  <path>  (1186) 
/opt/xchem-fragalysis-2/maxwin/BulkDock/SCRATCH/511024/C81073-P106/C81073-P106.minimised.mol

>  <scratch_subdir>  (1186) 
/opt/xchem-fragalysis-2/maxwin/BulkDock/SCRATCH/511024/C81073-P106

>  <fragmenstein_runtime>  (1186) 
20.69322109222412

>  <fragmenstein_outcome>  (1186) 
too moved

>  <fragmenstein_mode>  (1186) 
expansion

>  <fragmenstein_error>  (1186) 


$$$$
C81075-P54
     RDKit          3D

 30 32  0  0  0  0  0  0  0  0999 V2000
   -4.7812  -16.5896   26.9708 C   0  0  0  0  0  0  0  0  0  0  0  0
   -3.7050  -15.4490   26.1959 O   0  0  0  0  0  0  0  0  0  0  0  0
   -3.4551  -14.1891   26.6233 C   0  0  0  0  0  0  0  0  0  0  0  0
   -4.2285  -14.1002   28.1128 C   0  0  0  0  0  0  0  0  0  0  0  0
   -4.0565  -13.1197   29.0296 N   0  0  0  0  0  0  0  0  0  0  0  0
   -3.1590  -12.1924   28.6125 C   0  0  0  0  0  0  0  0  0  0  0  0
   -2.3356  -12.1458   27.4298 N   0  0  0  0  0  0  0  0  0  0  0  0
   -2.2168  -12.9735   26.2034 C   0  0  0  0  0  0  0  0  0  0  0  0
   -0.4812  -12.8960   26.1271 N   0  0  0  0  0  0  0  0  0  0  0  0
    0.8196  -12.0762   24.7140 C   0  0  0  0  0  0  0  0  0  0  0  0
    0.3527  -11.4426   23.7694 O   0  0  0  0  0  0  0  0  0  0  0  0
    2.8689  -11.9484   24.6319 C   0  0  0  0  0  0  0  0  0  0  0  0
    3.7541  -12.3101   23.1013 C   0  0  0  0  0  0  0  0  0  0  0  0
    5.0361  -12.0250   22.8101 C   0  0  0  0  0  0  0  0  0  0  0  0
    5.7301  -11.2448   23.6789 N   0  0  0  0  0  0  0  0  0  0  0  0
    6.9441  -10.6241   23.5287 C   0  0  0  0  0  0  0  0  0  0  0  0
    7.0258   -9.7685   24.5964 C   0  0  0  0  0  0  0  0  0  0  0  0
    5.9068   -9.8829   25.3898 N   0  0  0  0  0  0  0  0  0  0  0  0
    5.1248  -10.7988   24.8321 C   0  0  0  0  0  0  0  0  0  0  0  0
    3.8085  -11.1225   25.1642 N   0  0  0  0  0  0  0  0  0  0  0  0
   -4.8890  -16.4624   28.0493 H   0  0  0  0  0  0  0  0  0  0  0  0
   -5.7639  -16.5985   26.5113 H   0  0  0  0  0  0  0  0  0  0  0  0
   -4.2848  -17.5624   26.8263 H   0  0  0  0  0  0  0  0  0  0  0  0
   -5.0400  -14.7476   28.3968 H   0  0  0  0  0  0  0  0  0  0  0  0
   -2.9867  -11.3542   29.2848 H   0  0  0  0  0  0  0  0  0  0  0  0
    0.0684  -13.3184   26.8923 H   0  0  0  0  0  0  0  0  0  0  0  0
    3.2039  -12.4778   22.1794 H   0  0  0  0  0  0  0  0  0  0  0  0
    5.4707  -12.1973   21.8335 H   0  0  0  0  0  0  0  0  0  0  0  0
    7.5963  -10.8147   22.6896 H   0  0  0  0  0  0  0  0  0  0  0  0
    7.8202   -9.0769   24.8451 H   0  0  0  0  0  0  0  0  0  0  0  0
  1  2  1  0
  2  3  1  0
  3  4  2  0
  4  5  1  0
  5  6  2  0
  6  7  1  0
  7  8  2  0
  8  9  1  0
  9 10  1  0
 10 11  2  0
 10 12  1  0
 12 13  1  0
 13 14  2  0
 14 15  1  0
 15 16  1  0
 16 17  2  0
 17 18  1  0
 18 19  2  0
 19 20  1  0
  8  3  1  0
 20 12  2  0
 19 15  1  0
  1 21  1  0
  1 22  1  0
  1 23  1  0
  4 24  1  0
  6 25  1  0
  9 26  1  0
 13 27  1  0
 14 28  1  0
 16 29  1  0
 17 30  1  0
M  END
>  <Energy>  (1187) 
639.37564172582847

>  <compound_id>  (1187) 
81075

>  <target_id>  (1187) 
1

>  <reference_id>  (1187) 
54

>  <inspiration_ids>  (1187) 
[54, 106]

>  <energy_score>  (1187) 
567.5951495953417

>  <distance_score>  (1187) 
14.76428935215304

>  <path>  (1187) 
/opt/xchem-fragalysis-2/maxwin/BulkDock/SCRATCH/511024/C81075-P54/C81075-P54.minimised.mol

>  <scratch_subdir>  (1187) 
/opt/xchem-fragalysis-2/maxwin/BulkDock/SCRATCH/511024/C81075-P54

>  <fragmenstein_runtime>  (1187) 
6.446106195449829

>  <fragmenstein_outcome>  (1187) 
too moved

>  <fragmenstein_mode>  (1187) 
expansion

>  <fragmenstein_error>  (1187) 


$$$$
C81075-P106
     RDKit          3D

 30 32  0  0  0  0  0  0  0  0999 V2000
   -4.0023  -16.6775   21.8223 C   0  0  0  0  0  0  0  0  0  0  0  0
   -3.4695  -15.5577   23.2263 O   0  0  0  0  0  0  0  0  0  0  0  0
   -2.3079  -15.6872   24.3716 C   0  0  0  0  0  0  0  0  0  0  0  0
   -2.6694  -16.7889   25.6750 C   0  0  0  0  0  0  0  0  0  0  0  0
   -2.3815  -16.6020   27.0704 N   0  0  0  0  0  0  0  0  0  0  0  0
   -2.0134  -15.2552   27.0556 C   0  0  0  0  0  0  0  0  0  0  0  0
   -1.7092  -14.3793   25.6288 N   0  0  0  0  0  0  0  0  0  0  0  0
   -1.0348  -14.9298   24.3621 C   0  0  0  0  0  0  0  0  0  0  0  0
    0.4487  -13.9155   23.6265 N   0  0  0  0  0  0  0  0  0  0  0  0
    2.3613  -14.3309   23.3073 C   0  0  0  0  0  0  0  0  0  0  0  0
    2.7919  -15.4061   23.4790 O   0  0  0  0  0  0  0  0  0  0  0  0
    3.7728  -13.2020   22.8857 C   0  0  0  0  0  0  0  0  0  0  0  0
    4.3773  -11.8648   22.4062 C   0  0  0  0  0  0  0  0  0  0  0  0
    5.6533  -11.5465   22.1144 C   0  0  0  0  0  0  0  0  0  0  0  0
    6.5711  -12.5187   22.2216 N   0  0  0  0  0  0  0  0  0  0  0  0
    7.9040  -12.5097   21.9355 C   0  0  0  0  0  0  0  0  0  0  0  0
    8.3099  -13.7744   22.2659 C   0  0  0  0  0  0  0  0  0  0  0  0
    7.2534  -14.5115   22.7627 N   0  0  0  0  0  0  0  0  0  0  0  0
    6.1852  -13.7310   22.7402 C   0  0  0  0  0  0  0  0  0  0  0  0
    4.8633  -14.0059   23.0935 N   0  0  0  0  0  0  0  0  0  0  0  0
   -3.3256  -16.8710   20.9652 H   0  0  0  0  0  0  0  0  0  0  0  0
   -4.6142  -16.0058   21.4250 H   0  0  0  0  0  0  0  0  0  0  0  0
   -4.7948  -17.4353   21.9876 H   0  0  0  0  0  0  0  0  0  0  0  0
   -2.6263  -17.8738   25.5483 H   0  0  0  0  0  0  0  0  0  0  0  0
   -1.8144  -14.8149   28.0147 H   0  0  0  0  0  0  0  0  0  0  0  0
    0.2853  -12.9361   23.5070 H   0  0  0  0  0  0  0  0  0  0  0  0
    3.7785  -10.9506   22.4873 H   0  0  0  0  0  0  0  0  0  0  0  0
    6.0054  -10.5571   21.8566 H   0  0  0  0  0  0  0  0  0  0  0  0
    8.4210  -11.6539   21.5284 H   0  0  0  0  0  0  0  0  0  0  0  0
    9.2994  -14.2057   22.1852 H   0  0  0  0  0  0  0  0  0  0  0  0
  1  2  1  0
  2  3  1  0
  3  4  2  0
  4  5  1  0
  5  6  2  0
  6  7  1  0
  7  8  2  0
  8  9  1  0
  9 10  1  0
 10 11  2  0
 10 12  1  0
 12 13  1  0
 13 14  2  0
 14 15  1  0
 15 16  1  0
 16 17  2  0
 17 18  1  0
 18 19  2  0
 19 20  1  0
  8  3  1  0
 20 12  2  0
 19 15  1  0
  1 21  1  0
  1 22  1  0
  1 23  1  0
  4 24  1  0
  6 25  1  0
  9 26  1  0
 13 27  1  0
 14 28  1  0
 16 29  1  0
 17 30  1  0
M  END
>  <Energy>  (1188) 
737.37773390776397

>  <compound_id>  (1188) 
81075

>  <target_id>  (1188) 
1

>  <reference_id>  (1188) 
106

>  <inspiration_ids>  (1188) 
[54, 106]

>  <energy_score>  (1188) 
665.5972417772883

>  <distance_score>  (1188) 
14.563330998917694

>  <path>  (1188) 
/opt/xchem-fragalysis-2/maxwin/BulkDock/SCRATCH/511024/C81075-P106/C81075-P106.minimised.mol

>  <scratch_subdir>  (1188) 
/opt/xchem-fragalysis-2/maxwin/BulkDock/SCRATCH/511024/C81075-P106

>  <fragmenstein_runtime>  (1188) 
16.05297565460205

>  <fragmenstein_outcome>  (1188) 
too moved

>  <fragmenstein_mode>  (1188) 
expansion

>  <fragmenstein_error>  (1188) 


$$$$
C81077-P54
     RDKit          3D

 45 47  0  0  0  0  0  0  0  0999 V2000
   -5.2288  -20.8806   25.0266 C   0  0  0  0  0  0  0  0  0  0  0  0
   -5.3363  -19.8585   26.3367 C   0  0  0  0  0  0  0  0  0  0  0  0
   -4.2431  -20.5601   27.2366 C   0  0  0  0  0  0  0  0  0  0  0  0
   -6.6420  -20.2128   26.9279 C   0  0  0  0  0  0  0  0  0  0  0  0
   -5.1879  -18.1917   25.7098 C   0  0  0  0  0  0  0  0  0  0  0  0
   -4.2873  -18.7548   24.7431 N   0  0  0  0  0  0  0  0  0  0  0  0
   -2.9385  -18.2868   24.7554 C   0  0  0  0  0  0  0  0  0  0  0  0
   -2.2690  -16.8694   25.3064 C   0  0  0  0  0  0  0  0  0  0  0  0
   -3.2258  -15.7497   26.0109 C   0  0  0  0  0  0  0  0  0  0  0  0
   -2.4698  -14.1909   25.2348 C   0  0  0  0  0  0  0  0  0  0  0  0
   -2.2729  -12.9863   23.5236 C   0  0  0  0  0  0  0  0  0  0  0  0
   -0.7870  -12.6573   22.1441 C   0  0  0  0  0  0  0  0  0  0  0  0
    0.8846  -11.7004   21.6331 N   0  0  0  0  0  0  0  0  0  0  0  0
    2.3850  -11.6764   20.9439 C   0  0  0  0  0  0  0  0  0  0  0  0
    3.7156  -12.2082   21.5396 C   0  0  0  0  0  0  0  0  0  0  0  0
    4.9065  -11.9220   20.9743 C   0  0  0  0  0  0  0  0  0  0  0  0
    4.9632  -11.1595   19.8291 N   0  0  0  0  0  0  0  0  0  0  0  0
    6.0431  -10.6798   19.1257 C   0  0  0  0  0  0  0  0  0  0  0  0
    5.5022   -9.9108   18.1253 C   0  0  0  0  0  0  0  0  0  0  0  0
    4.1340   -9.8859   18.2262 N   0  0  0  0  0  0  0  0  0  0  0  0
    3.8103  -10.6808   19.2395 C   0  0  0  0  0  0  0  0  0  0  0  0
    2.5815  -10.9152   19.8296 N   0  0  0  0  0  0  0  0  0  0  0  0
   -4.8270  -16.5683   26.4439 N   0  0  0  0  0  0  0  0  0  0  0  0
   -5.6881  -21.8503   25.1747 H   0  0  0  0  0  0  0  0  0  0  0  0
   -4.1834  -21.0952   24.7627 H   0  0  0  0  0  0  0  0  0  0  0  0
   -5.6747  -20.4818   24.1095 H   0  0  0  0  0  0  0  0  0  0  0  0
   -4.7866  -21.2348   27.8418 H   0  0  0  0  0  0  0  0  0  0  0  0
   -3.4618  -21.0817   26.6743 H   0  0  0  0  0  0  0  0  0  0  0  0
   -3.7241  -20.0797   28.0647 H   0  0  0  0  0  0  0  0  0  0  0  0
   -7.0540  -21.0145   26.3573 H   0  0  0  0  0  0  0  0  0  0  0  0
   -7.2613  -19.3485   26.9210 H   0  0  0  0  0  0  0  0  0  0  0  0
   -6.6457  -20.6505   27.9189 H   0  0  0  0  0  0  0  0  0  0  0  0
   -2.4530  -19.0152   24.1163 H   0  0  0  0  0  0  0  0  0  0  0  0
   -1.2787  -16.5326   25.0467 H   0  0  0  0  0  0  0  0  0  0  0  0
   -2.8770  -14.8707   24.4459 H   0  0  0  0  0  0  0  0  0  0  0  0
   -2.7389  -13.4823   25.9813 H   0  0  0  0  0  0  0  0  0  0  0  0
   -2.7518  -12.0451   23.7031 H   0  0  0  0  0  0  0  0  0  0  0  0
   -2.9094  -13.6483   22.9071 H   0  0  0  0  0  0  0  0  0  0  0  0
   -0.0252  -13.0442   22.6189 H   0  0  0  0  0  0  0  0  0  0  0  0
   -1.1412  -12.9331   21.1597 H   0  0  0  0  0  0  0  0  0  0  0  0
    0.5591  -10.7396   21.4957 H   0  0  0  0  0  0  0  0  0  0  0  0
    3.7317  -12.6705   22.5051 H   0  0  0  0  0  0  0  0  0  0  0  0
    5.8465  -12.2299   21.4130 H   0  0  0  0  0  0  0  0  0  0  0  0
    7.0595  -10.9333   19.3868 H   0  0  0  0  0  0  0  0  0  0  0  0
    6.0151   -9.3754   17.3377 H   0  0  0  0  0  0  0  0  0  0  0  0
  1  2  1  0
  2  3  1  0
  2  4  1  0
  2  5  1  0
  5  6  2  0
  6  7  1  0
  7  8  2  0
  8  9  1  0
  9 10  1  0
 10 11  1  0
 11 12  1  0
 12 13  1  0
 13 14  1  0
 14 15  1  0
 15 16  2  0
 16 17  1  0
 17 18  1  0
 18 19  2  0
 19 20  1  0
 20 21  2  0
 21 22  1  0
  9 23  2  0
 23  5  1  0
 22 14  2  0
 21 17  1  0
  1 24  1  0
  1 25  1  0
  1 26  1  0
  3 27  1  0
  3 28  1  0
  3 29  1  0
  4 30  1  0
  4 31  1  0
  4 32  1  0
  7 33  1  0
  8 34  1  0
 10 35  1  0
 10 36  1  0
 11 37  1  0
 11 38  1  0
 12 39  1  0
 12 40  1  0
 13 41  1  0
 15 42  1  0
 16 43  1  0
 18 44  1  0
 19 45  1  0
M  END
>  <Energy>  (1189) 
807.58666151797217

>  <compound_id>  (1189) 
81077

>  <target_id>  (1189) 
1

>  <reference_id>  (1189) 
54

>  <inspiration_ids>  (1189) 
[54, 106]

>  <energy_score>  (1189) 
766.1495830924121

>  <distance_score>  (1189) 
12.39048827042476

>  <path>  (1189) 
/opt/xchem-fragalysis-2/maxwin/BulkDock/SCRATCH/511024/C81077-P54/C81077-P54.minimised.mol

>  <scratch_subdir>  (1189) 
/opt/xchem-fragalysis-2/maxwin/BulkDock/SCRATCH/511024/C81077-P54

>  <fragmenstein_runtime>  (1189) 
20.301289319992065

>  <fragmenstein_outcome>  (1189) 
too moved

>  <fragmenstein_mode>  (1189) 
expansion

>  <fragmenstein_error>  (1189) 


$$$$
C81077-P106
     RDKit          3D

 45 47  0  0  0  0  0  0  0  0999 V2000
   -1.1956  -16.2264   33.0428 C   0  0  0  0  0  0  0  0  0  0  0  0
   -2.2237  -15.1036   32.8709 C   0  0  0  0  0  0  0  0  0  0  0  0
   -3.1744  -15.1552   34.0942 C   0  0  0  0  0  0  0  0  0  0  0  0
   -3.1067  -15.3564   31.6320 C   0  0  0  0  0  0  0  0  0  0  0  0
   -1.5695  -13.6933   32.6997 C   0  0  0  0  0  0  0  0  0  0  0  0
   -2.4876  -12.7306   32.5070 N   0  0  0  0  0  0  0  0  0  0  0  0
   -2.0210  -11.5109   32.2121 C   0  0  0  0  0  0  0  0  0  0  0  0
   -0.6811  -11.1634   32.1304 C   0  0  0  0  0  0  0  0  0  0  0  0
    0.2549  -12.1502   32.3698 C   0  0  0  0  0  0  0  0  0  0  0  0
    1.8514  -11.7103   32.3275 C   0  0  0  0  0  0  0  0  0  0  0  0
    2.4542  -10.7218   31.1144 C   0  0  0  0  0  0  0  0  0  0  0  0
    4.0588  -10.5841   30.6472 C   0  0  0  0  0  0  0  0  0  0  0  0
    4.3462   -9.6240   29.4650 N   0  0  0  0  0  0  0  0  0  0  0  0
    5.4945   -9.2896   28.6795 C   0  0  0  0  0  0  0  0  0  0  0  0
    6.8458   -9.9644   28.7646 C   0  0  0  0  0  0  0  0  0  0  0  0
    7.8082   -9.6024   27.8874 C   0  0  0  0  0  0  0  0  0  0  0  0
    7.5552   -8.6225   26.9383 N   0  0  0  0  0  0  0  0  0  0  0  0
    8.3337   -8.1172   25.9222 C   0  0  0  0  0  0  0  0  0  0  0  0
    7.5421   -7.1880   25.2886 C   0  0  0  0  0  0  0  0  0  0  0  0
    6.3161   -7.1048   25.9037 N   0  0  0  0  0  0  0  0  0  0  0  0
    6.3302   -7.9823   26.8954 C   0  0  0  0  0  0  0  0  0  0  0  0
    5.3303   -8.3287   27.7824 N   0  0  0  0  0  0  0  0  0  0  0  0
   -0.1937  -13.4439   32.6667 N   0  0  0  0  0  0  0  0  0  0  0  0
   -0.4503  -16.2120   32.2408 H   0  0  0  0  0  0  0  0  0  0  0  0
   -0.6414  -16.1047   33.9814 H   0  0  0  0  0  0  0  0  0  0  0  0
   -1.6686  -17.2142   33.0648 H   0  0  0  0  0  0  0  0  0  0  0  0
   -2.6255  -14.9452   35.0196 H   0  0  0  0  0  0  0  0  0  0  0  0
   -3.6425  -16.1411   34.1947 H   0  0  0  0  0  0  0  0  0  0  0  0
   -3.9761  -14.4115   34.0198 H   0  0  0  0  0  0  0  0  0  0  0  0
   -3.4747  -16.3878   31.6025 H   0  0  0  0  0  0  0  0  0  0  0  0
   -2.5633  -15.1427   30.7100 H   0  0  0  0  0  0  0  0  0  0  0  0
   -3.9905  -14.7061   31.6226 H   0  0  0  0  0  0  0  0  0  0  0  0
   -2.7910  -10.7654   32.0441 H   0  0  0  0  0  0  0  0  0  0  0  0
   -0.3923  -10.1492   31.8941 H   0  0  0  0  0  0  0  0  0  0  0  0
    2.4572  -12.6208   32.3965 H   0  0  0  0  0  0  0  0  0  0  0  0
    2.0136  -11.1735   33.2718 H   0  0  0  0  0  0  0  0  0  0  0  0
    2.1871   -9.7335   31.4899 H   0  0  0  0  0  0  0  0  0  0  0  0
    1.8729  -10.9043   30.2054 H   0  0  0  0  0  0  0  0  0  0  0  0
    4.4345  -11.5722   30.3807 H   0  0  0  0  0  0  0  0  0  0  0  0
    4.6211  -10.2187   31.5124 H   0  0  0  0  0  0  0  0  0  0  0  0
    3.5392   -9.0231   29.2741 H   0  0  0  0  0  0  0  0  0  0  0  0
    6.9869  -10.7279   29.5167 H   0  0  0  0  0  0  0  0  0  0  0  0
    8.7912  -10.0554   27.8786 H   0  0  0  0  0  0  0  0  0  0  0  0
    9.3415   -8.4604   25.7420 H   0  0  0  0  0  0  0  0  0  0  0  0
    7.7802   -6.5740   24.4294 H   0  0  0  0  0  0  0  0  0  0  0  0
  1  2  1  0
  2  3  1  0
  2  4  1  0
  2  5  1  0
  5  6  2  0
  6  7  1  0
  7  8  2  0
  8  9  1  0
  9 10  1  0
 10 11  1  0
 11 12  1  0
 12 13  1  0
 13 14  1  0
 14 15  1  0
 15 16  2  0
 16 17  1  0
 17 18  1  0
 18 19  2  0
 19 20  1  0
 20 21  2  0
 21 22  1  0
  9 23  2  0
 23  5  1  0
 22 14  2  0
 21 17  1  0
  1 24  1  0
  1 25  1  0
  1 26  1  0
  3 27  1  0
  3 28  1  0
  3 29  1  0
  4 30  1  0
  4 31  1  0
  4 32  1  0
  7 33  1  0
  8 34  1  0
 10 35  1  0
 10 36  1  0
 11 37  1  0
 11 38  1  0
 12 39  1  0
 12 40  1  0
 13 41  1  0
 15 42  1  0
 16 43  1  0
 18 44  1  0
 19 45  1  0
M  END
>  <Energy>  (1190) 
40.284154526113419

>  <compound_id>  (1190) 
81077

>  <target_id>  (1190) 
1

>  <reference_id>  (1190) 
106

>  <inspiration_ids>  (1190) 
[54, 106]

>  <energy_score>  (1190) 
-1.152923899447842

>  <distance_score>  (1190) 
14.589764721276016

>  <path>  (1190) 
/opt/xchem-fragalysis-2/maxwin/BulkDock/SCRATCH/511024/C81077-P106/C81077-P106.minimised.mol

>  <scratch_subdir>  (1190) 
/opt/xchem-fragalysis-2/maxwin/BulkDock/SCRATCH/511024/C81077-P106

>  <fragmenstein_runtime>  (1190) 
28.40572214126587

>  <fragmenstein_outcome>  (1190) 
too moved

>  <fragmenstein_mode>  (1190) 
expansion

>  <fragmenstein_error>  (1190) 


$$$$
C81078-P54
     RDKit          3D

 35 37  0  0  0  0  0  0  0  0999 V2000
   -1.0107  -15.8848   25.8154 C   0  0  0  0  0  0  0  0  0  0  0  0
    0.3464  -15.2882   26.5416 C   0  0  0  0  0  0  0  0  0  0  0  0
    0.4341  -15.6502   28.0376 N   0  0  0  0  0  0  0  0  0  0  0  0
    0.8963  -14.6127   28.7073 C   0  0  0  0  0  0  0  0  0  0  0  0
    1.2938  -13.5456   27.8691 C   0  0  0  0  0  0  0  0  0  0  0  0
    1.6058  -13.3584   26.1944 C   0  0  0  0  0  0  0  0  0  0  0  0
    2.3619  -11.7545   25.1692 C   0  0  0  0  0  0  0  0  0  0  0  0
    2.3491   -9.6215   25.6234 C   0  0  0  0  0  0  0  0  0  0  0  0
    3.7719  -11.7407   24.1734 N   0  0  0  0  0  0  0  0  0  0  0  0
    5.1343  -11.2416   24.4381 C   0  0  0  0  0  0  0  0  0  0  0  0
    5.6247  -10.7978   25.4442 O   0  0  0  0  0  0  0  0  0  0  0  0
    6.1590  -11.1210   23.2376 C   0  0  0  0  0  0  0  0  0  0  0  0
    7.6044  -11.4227   23.5660 C   0  0  0  0  0  0  0  0  0  0  0  0
    8.5367  -10.9125   22.7426 C   0  0  0  0  0  0  0  0  0  0  0  0
    8.1418  -10.2033   21.6215 N   0  0  0  0  0  0  0  0  0  0  0  0
    8.9006   -9.6146   20.6417 C   0  0  0  0  0  0  0  0  0  0  0  0
    7.9934   -9.1108   19.7451 C   0  0  0  0  0  0  0  0  0  0  0  0
    6.7064   -9.3064   20.1861 N   0  0  0  0  0  0  0  0  0  0  0  0
    6.7970  -10.0082   21.3081 C   0  0  0  0  0  0  0  0  0  0  0  0
    5.7992  -10.4732   22.1467 N   0  0  0  0  0  0  0  0  0  0  0  0
    1.2890  -14.5319   25.7430 N   0  0  0  0  0  0  0  0  0  0  0  0
   -0.8002  -15.9766   24.7849 H   0  0  0  0  0  0  0  0  0  0  0  0
   -1.2854  -16.9020   26.0622 H   0  0  0  0  0  0  0  0  0  0  0  0
   -1.8758  -15.2230   25.8932 H   0  0  0  0  0  0  0  0  0  0  0  0
    0.9360  -14.6348   29.7856 H   0  0  0  0  0  0  0  0  0  0  0  0
    1.7545  -12.9710   28.6702 H   0  0  0  0  0  0  0  0  0  0  0  0
    3.2105  -12.3033   25.6080 H   0  0  0  0  0  0  0  0  0  0  0  0
    1.5737   -8.9830   25.0730 H   0  0  0  0  0  0  0  0  0  0  0  0
    2.0029   -9.1465   26.5600 H   0  0  0  0  0  0  0  0  0  0  0  0
    3.4177   -9.2125   25.8005 H   0  0  0  0  0  0  0  0  0  0  0  0
    3.6846  -11.9611   23.1873 H   0  0  0  0  0  0  0  0  0  0  0  0
    7.8274  -11.9646   24.4764 H   0  0  0  0  0  0  0  0  0  0  0  0
    9.5989  -11.0352   22.9114 H   0  0  0  0  0  0  0  0  0  0  0  0
    9.9802   -9.6472   20.6491 H   0  0  0  0  0  0  0  0  0  0  0  0
    8.2025   -8.6290   18.8008 H   0  0  0  0  0  0  0  0  0  0  0  0
  1  2  1  0
  2  3  2  0
  3  4  1  0
  4  5  2  0
  5  6  1  0
  6  7  1  0
  7  8  1  0
  7  9  1  0
  9 10  1  0
 10 11  2  0
 10 12  1  0
 12 13  1  0
 13 14  2  0
 14 15  1  0
 15 16  1  0
 16 17  2  0
 17 18  1  0
 18 19  2  0
 19 20  1  0
  6 21  2  0
 21  2  1  0
 20 12  2  0
 19 15  1  0
  1 22  1  0
  1 23  1  0
  1 24  1  0
  4 25  1  0
  5 26  1  0
  7 27  1  0
  8 28  1  0
  8 29  1  0
  8 30  1  0
  9 31  1  0
 13 32  1  0
 14 33  1  0
 16 34  1  0
 17 35  1  0
M  END
>  <Energy>  (1191) 
468.94842993890938

>  <compound_id>  (1191) 
81078

>  <target_id>  (1191) 
1

>  <reference_id>  (1191) 
54

>  <inspiration_ids>  (1191) 
[54, 106]

>  <energy_score>  (1191) 
389.10464242837986

>  <distance_score>  (1191) 
13.874836551192185

>  <path>  (1191) 
/opt/xchem-fragalysis-2/maxwin/BulkDock/SCRATCH/511024/C81078-P54/C81078-P54.minimised.mol

>  <scratch_subdir>  (1191) 
/opt/xchem-fragalysis-2/maxwin/BulkDock/SCRATCH/511024/C81078-P54

>  <fragmenstein_runtime>  (1191) 
10.656186580657959

>  <fragmenstein_outcome>  (1191) 
too moved

>  <fragmenstein_mode>  (1191) 
expansion

>  <fragmenstein_error>  (1191) 


$$$$
C81078-P106
     RDKit          3D

 35 37  0  0  0  0  0  0  0  0999 V2000
   -6.1972  -18.4994   19.5176 C   0  0  0  0  0  0  0  0  0  0  0  0
   -4.9399  -18.4427   18.6749 C   0  0  0  0  0  0  0  0  0  0  0  0
   -4.0679  -19.4391   18.8605 N   0  0  0  0  0  0  0  0  0  0  0  0
   -2.9725  -19.3817   18.0871 C   0  0  0  0  0  0  0  0  0  0  0  0
   -2.7029  -18.3809   17.1556 C   0  0  0  0  0  0  0  0  0  0  0  0
   -3.5993  -17.3357   17.0330 C   0  0  0  0  0  0  0  0  0  0  0  0
   -3.4585  -16.2076   15.8750 C   0  0  0  0  0  0  0  0  0  0  0  0
   -3.6538  -16.9085   14.5263 C   0  0  0  0  0  0  0  0  0  0  0  0
   -2.2825  -15.1772   15.7930 N   0  0  0  0  0  0  0  0  0  0  0  0
   -1.5560  -14.6168   14.6165 C   0  0  0  0  0  0  0  0  0  0  0  0
   -1.6442  -14.8810   13.4456 O   0  0  0  0  0  0  0  0  0  0  0  0
   -0.4640  -13.4145   14.8381 C   0  0  0  0  0  0  0  0  0  0  0  0
   -0.9587  -12.0056   14.5540 C   0  0  0  0  0  0  0  0  0  0  0  0
   -0.0373  -11.0357   14.3765 C   0  0  0  0  0  0  0  0  0  0  0  0
    1.3097  -11.3315   14.5180 N   0  0  0  0  0  0  0  0  0  0  0  0
    2.4124  -10.5120   14.4563 C   0  0  0  0  0  0  0  0  0  0  0  0
    3.4700  -11.3089   14.8176 C   0  0  0  0  0  0  0  0  0  0  0  0
    3.0374  -12.5881   15.0929 N   0  0  0  0  0  0  0  0  0  0  0  0
    1.7315  -12.6156   14.8679 C   0  0  0  0  0  0  0  0  0  0  0  0
    0.8230  -13.6632   15.0113 N   0  0  0  0  0  0  0  0  0  0  0  0
   -4.7474  -17.4088   17.7842 N   0  0  0  0  0  0  0  0  0  0  0  0
   -7.0710  -18.3314   18.8813 H   0  0  0  0  0  0  0  0  0  0  0  0
   -6.3017  -19.4786   19.9949 H   0  0  0  0  0  0  0  0  0  0  0  0
   -6.1717  -17.7333   20.2938 H   0  0  0  0  0  0  0  0  0  0  0  0
   -2.2778  -20.2081   18.2154 H   0  0  0  0  0  0  0  0  0  0  0  0
   -1.8222  -18.4547   16.5293 H   0  0  0  0  0  0  0  0  0  0  0  0
   -4.3287  -15.5563   16.0301 H   0  0  0  0  0  0  0  0  0  0  0  0
   -2.7651  -17.4851   14.2473 H   0  0  0  0  0  0  0  0  0  0  0  0
   -3.8473  -16.1818   13.7309 H   0  0  0  0  0  0  0  0  0  0  0  0
   -4.5076  -17.5949   14.5521 H   0  0  0  0  0  0  0  0  0  0  0  0
   -2.0166  -14.6627   16.6237 H   0  0  0  0  0  0  0  0  0  0  0  0
   -2.0234  -11.8505   14.4356 H   0  0  0  0  0  0  0  0  0  0  0  0
   -0.3003  -10.0133   14.1338 H   0  0  0  0  0  0  0  0  0  0  0  0
    2.3431   -9.4674   14.1903 H   0  0  0  0  0  0  0  0  0  0  0  0
    4.5149  -11.0393   14.9046 H   0  0  0  0  0  0  0  0  0  0  0  0
  1  2  1  0
  2  3  2  0
  3  4  1  0
  4  5  2  0
  5  6  1  0
  6  7  1  0
  7  8  1  0
  7  9  1  0
  9 10  1  0
 10 11  2  0
 10 12  1  0
 12 13  1  0
 13 14  2  0
 14 15  1  0
 15 16  1  0
 16 17  2  0
 17 18  1  0
 18 19  2  0
 19 20  1  0
  6 21  2  0
 21  2  1  0
 20 12  2  0
 19 15  1  0
  1 22  1  0
  1 23  1  0
  1 24  1  0
  4 25  1  0
  5 26  1  0
  7 27  1  0
  8 28  1  0
  8 29  1  0
  8 30  1  0
  9 31  1  0
 13 32  1  0
 14 33  1  0
 16 34  1  0
 17 35  1  0
M  END
>  <Energy>  (1192) 
89.461560292431329

>  <compound_id>  (1192) 
81078

>  <target_id>  (1192) 
1

>  <reference_id>  (1192) 
106

>  <inspiration_ids>  (1192) 
[54, 106]

>  <energy_score>  (1192) 
9.617772781909935

>  <distance_score>  (1192) 
15.847975325125185

>  <path>  (1192) 
/opt/xchem-fragalysis-2/maxwin/BulkDock/SCRATCH/511024/C81078-P106/C81078-P106.minimised.mol

>  <scratch_subdir>  (1192) 
/opt/xchem-fragalysis-2/maxwin/BulkDock/SCRATCH/511024/C81078-P106

>  <fragmenstein_runtime>  (1192) 
23.949347257614136

>  <fragmenstein_outcome>  (1192) 
too moved

>  <fragmenstein_mode>  (1192) 
expansion

>  <fragmenstein_error>  (1192) 


$$$$
C81080-P54
     RDKit          3D

 36 38  0  0  0  0  0  0  0  0999 V2000
   -2.6177  -20.7525   28.3534 C   0  0  0  0  0  0  0  0  0  0  0  0
   -3.0711  -19.5182   27.8144 O   0  0  0  0  0  0  0  0  0  0  0  0
   -2.0112  -18.6763   27.5110 C   0  0  0  0  0  0  0  0  0  0  0  0
   -0.7512  -19.1470   27.5131 N   0  0  0  0  0  0  0  0  0  0  0  0
    0.2469  -18.2452   27.2870 C   0  0  0  0  0  0  0  0  0  0  0  0
    0.0622  -16.8952   27.0511 C   0  0  0  0  0  0  0  0  0  0  0  0
    1.1812  -15.8337   27.0261 C   0  0  0  0  0  0  0  0  0  0  0  0
    2.5425  -15.9547   26.1905 C   0  0  0  0  0  0  0  0  0  0  0  0
    3.4062  -14.7182   25.9219 N   0  0  0  0  0  0  0  0  0  0  0  0
    4.5981  -14.5363   25.0547 C   0  0  0  0  0  0  0  0  0  0  0  0
    5.2253  -15.3358   24.4114 O   0  0  0  0  0  0  0  0  0  0  0  0
    5.2764  -13.0658   24.9269 C   0  0  0  0  0  0  0  0  0  0  0  0
    6.3190  -12.7198   25.9662 C   0  0  0  0  0  0  0  0  0  0  0  0
    7.1177  -11.6630   25.7178 C   0  0  0  0  0  0  0  0  0  0  0  0
    6.9397  -10.9186   24.5631 N   0  0  0  0  0  0  0  0  0  0  0  0
    7.6446   -9.8372   24.0860 C   0  0  0  0  0  0  0  0  0  0  0  0
    7.0339   -9.5003   22.9052 C   0  0  0  0  0  0  0  0  0  0  0  0
    5.9834  -10.3456   22.6607 N   0  0  0  0  0  0  0  0  0  0  0  0
    5.9278  -11.2195   23.6582 C   0  0  0  0  0  0  0  0  0  0  0  0
    5.0957  -12.3230   23.8503 N   0  0  0  0  0  0  0  0  0  0  0  0
   -1.2903  -16.5517   27.0483 C   0  0  0  0  0  0  0  0  0  0  0  0
   -2.3324  -17.4054   27.2511 N   0  0  0  0  0  0  0  0  0  0  0  0
   -2.0476  -21.3257   27.6136 H   0  0  0  0  0  0  0  0  0  0  0  0
   -3.4871  -21.3451   28.6153 H   0  0  0  0  0  0  0  0  0  0  0  0
   -2.0338  -20.5994   29.2681 H   0  0  0  0  0  0  0  0  0  0  0  0
    1.2465  -18.6695   27.3523 H   0  0  0  0  0  0  0  0  0  0  0  0
    1.4854  -15.7013   28.0745 H   0  0  0  0  0  0  0  0  0  0  0  0
    0.7389  -14.8728   26.7654 H   0  0  0  0  0  0  0  0  0  0  0  0
    3.2027  -16.6631   26.7044 H   0  0  0  0  0  0  0  0  0  0  0  0
    2.3407  -16.3967   25.2107 H   0  0  0  0  0  0  0  0  0  0  0  0
    3.1897  -13.8410   26.3759 H   0  0  0  0  0  0  0  0  0  0  0  0
    6.4238  -13.3616   26.8303 H   0  0  0  0  0  0  0  0  0  0  0  0
    7.9172  -11.3625   26.3828 H   0  0  0  0  0  0  0  0  0  0  0  0
    8.4890   -9.4214   24.6149 H   0  0  0  0  0  0  0  0  0  0  0  0
    7.2831   -8.7011   22.2196 H   0  0  0  0  0  0  0  0  0  0  0  0
   -1.6009  -15.5169   26.9115 H   0  0  0  0  0  0  0  0  0  0  0  0
  1  2  1  0
  2  3  1  0
  3  4  2  0
  4  5  1  0
  5  6  2  0
  6  7  1  0
  7  8  1  0
  8  9  1  0
  9 10  1  0
 10 11  2  0
 10 12  1  0
 12 13  1  0
 13 14  2  0
 14 15  1  0
 15 16  1  0
 16 17  2  0
 17 18  1  0
 18 19  2  0
 19 20  1  0
  6 21  1  0
 21 22  2  0
 22  3  1  0
 20 12  2  0
 19 15  1  0
  1 23  1  0
  1 24  1  0
  1 25  1  0
  5 26  1  0
  7 27  1  0
  7 28  1  0
  8 29  1  0
  8 30  1  0
  9 31  1  0
 13 32  1  0
 14 33  1  0
 16 34  1  0
 17 35  1  0
 21 36  1  0
M  END
>  <Energy>  (1193) 
61.891017631586571

>  <compound_id>  (1193) 
81080

>  <target_id>  (1193) 
1

>  <reference_id>  (1193) 
54

>  <inspiration_ids>  (1193) 
[54, 106]

>  <energy_score>  (1193) 
12.130109561291817

>  <distance_score>  (1193) 
13.673501061220486

>  <path>  (1193) 
/opt/xchem-fragalysis-2/maxwin/BulkDock/SCRATCH/511024/C81080-P54/C81080-P54.minimised.mol

>  <scratch_subdir>  (1193) 
/opt/xchem-fragalysis-2/maxwin/BulkDock/SCRATCH/511024/C81080-P54

>  <fragmenstein_runtime>  (1193) 
20.577533960342407

>  <fragmenstein_outcome>  (1193) 
too moved

>  <fragmenstein_mode>  (1193) 
expansion

>  <fragmenstein_error>  (1193) 


$$$$
C81080-P106
     RDKit          3D

 36 38  0  0  0  0  0  0  0  0999 V2000
   -3.2646  -20.4948   25.6216 C   0  0  0  0  0  0  0  0  0  0  0  0
   -3.2740  -20.6151   24.2005 O   0  0  0  0  0  0  0  0  0  0  0  0
   -2.2058  -19.9871   23.5636 C   0  0  0  0  0  0  0  0  0  0  0  0
   -2.0892  -20.2066   22.2404 N   0  0  0  0  0  0  0  0  0  0  0  0
   -1.0527  -19.5844   21.5722 C   0  0  0  0  0  0  0  0  0  0  0  0
   -0.1001  -18.7702   22.1546 C   0  0  0  0  0  0  0  0  0  0  0  0
    1.0462  -17.9398   21.4918 C   0  0  0  0  0  0  0  0  0  0  0  0
    1.7557  -18.1027   20.0282 C   0  0  0  0  0  0  0  0  0  0  0  0
    2.9425  -17.1676   19.6243 N   0  0  0  0  0  0  0  0  0  0  0  0
    3.9696  -17.3004   18.5415 C   0  0  0  0  0  0  0  0  0  0  0  0
    4.1791  -18.2003   17.7691 O   0  0  0  0  0  0  0  0  0  0  0  0
    5.0869  -16.0756   18.3621 C   0  0  0  0  0  0  0  0  0  0  0  0
    6.4955  -16.3995   18.8382 C   0  0  0  0  0  0  0  0  0  0  0  0
    7.4377  -15.4417   18.7260 C   0  0  0  0  0  0  0  0  0  0  0  0
    7.1068  -14.2111   18.1837 N   0  0  0  0  0  0  0  0  0  0  0  0
    7.8809  -13.0921   17.9772 C   0  0  0  0  0  0  0  0  0  0  0  0
    7.0318  -12.1639   17.4287 C   0  0  0  0  0  0  0  0  0  0  0  0
    5.7630  -12.6786   17.3247 N   0  0  0  0  0  0  0  0  0  0  0  0
    5.8163  -13.9368   17.7449 C   0  0  0  0  0  0  0  0  0  0  0  0
    4.8069  -14.8958   17.8292 N   0  0  0  0  0  0  0  0  0  0  0  0
   -0.3508  -18.6368   23.5283 C   0  0  0  0  0  0  0  0  0  0  0  0
   -1.3678  -19.2044   24.2533 N   0  0  0  0  0  0  0  0  0  0  0  0
   -4.0673  -21.1205   26.0205 H   0  0  0  0  0  0  0  0  0  0  0  0
   -2.3212  -20.8569   26.0444 H   0  0  0  0  0  0  0  0  0  0  0  0
   -3.4549  -19.4594   25.9224 H   0  0  0  0  0  0  0  0  0  0  0  0
   -1.0459  -19.7758   20.5017 H   0  0  0  0  0  0  0  0  0  0  0  0
    0.7064  -16.8962   21.5241 H   0  0  0  0  0  0  0  0  0  0  0  0
    1.8875  -17.9966   22.1975 H   0  0  0  0  0  0  0  0  0  0  0  0
    2.1315  -19.1260   19.9237 H   0  0  0  0  0  0  0  0  0  0  0  0
    0.9938  -17.9525   19.2558 H   0  0  0  0  0  0  0  0  0  0  0  0
    3.0015  -16.2316   20.0285 H   0  0  0  0  0  0  0  0  0  0  0  0
    6.6770  -17.3878   19.2383 H   0  0  0  0  0  0  0  0  0  0  0  0
    8.4633  -15.5904   19.0372 H   0  0  0  0  0  0  0  0  0  0  0  0
    8.9334  -13.0673   18.2165 H   0  0  0  0  0  0  0  0  0  0  0  0
    7.2587  -11.1585   17.1012 H   0  0  0  0  0  0  0  0  0  0  0  0
    0.2992  -18.0039   24.1324 H   0  0  0  0  0  0  0  0  0  0  0  0
  1  2  1  0
  2  3  1  0
  3  4  2  0
  4  5  1  0
  5  6  2  0
  6  7  1  0
  7  8  1  0
  8  9  1  0
  9 10  1  0
 10 11  2  0
 10 12  1  0
 12 13  1  0
 13 14  2  0
 14 15  1  0
 15 16  1  0
 16 17  2  0
 17 18  1  0
 18 19  2  0
 19 20  1  0
  6 21  1  0
 21 22  2  0
 22  3  1  0
 20 12  2  0
 19 15  1  0
  1 23  1  0
  1 24  1  0
  1 25  1  0
  5 26  1  0
  7 27  1  0
  7 28  1  0
  8 29  1  0
  8 30  1  0
  9 31  1  0
 13 32  1  0
 14 33  1  0
 16 34  1  0
 17 35  1  0
 21 36  1  0
M  END
>  <Energy>  (1194) 
66.946006786104036

>  <compound_id>  (1194) 
81080

>  <target_id>  (1194) 
1

>  <reference_id>  (1194) 
106

>  <inspiration_ids>  (1194) 
[54, 106]

>  <energy_score>  (1194) 
17.185098715810568

>  <distance_score>  (1194) 
14.271382008286645

>  <path>  (1194) 
/opt/xchem-fragalysis-2/maxwin/BulkDock/SCRATCH/511024/C81080-P106/C81080-P106.minimised.mol

>  <scratch_subdir>  (1194) 
/opt/xchem-fragalysis-2/maxwin/BulkDock/SCRATCH/511024/C81080-P106

>  <fragmenstein_runtime>  (1194) 
28.835537433624268

>  <fragmenstein_outcome>  (1194) 
too moved

>  <fragmenstein_mode>  (1194) 
expansion

>  <fragmenstein_error>  (1194) 


$$$$
C81081-P54
     RDKit          3D

 44 47  0  0  0  0  0  0  0  0999 V2000
   -3.2822  -21.0857   28.9828 O   0  0  0  0  0  0  0  0  0  0  0  0
   -2.9565  -20.4959   29.9972 C   0  0  0  0  0  0  0  0  0  0  0  0
   -3.5873  -20.5201   31.4273 N   0  0  0  0  0  0  0  0  0  0  0  0
   -5.0041  -21.5666   32.1443 C   0  0  0  0  0  0  0  0  0  0  0  0
   -6.8244  -22.3629   32.5599 C   0  0  0  0  0  0  0  0  0  0  0  0
   -7.9282  -22.6119   31.3322 C   0  0  0  0  0  0  0  0  0  0  0  0
   -9.3233  -21.9945   31.5767 C   0  0  0  0  0  0  0  0  0  0  0  0
   -9.9962  -22.9524   32.4022 N   0  0  0  0  0  0  0  0  0  0  0  0
  -10.6136  -23.8560   31.5142 C   0  0  0  0  0  0  0  0  0  0  0  0
  -11.2016  -23.3318   30.4067 N   0  0  0  0  0  0  0  0  0  0  0  0
  -11.7602  -24.1254   29.4801 C   0  0  0  0  0  0  0  0  0  0  0  0
  -11.8362  -25.4736   29.6275 C   0  0  0  0  0  0  0  0  0  0  0  0
  -11.2689  -25.9397   30.7839 C   0  0  0  0  0  0  0  0  0  0  0  0
  -10.6137  -25.1801   31.7032 N   0  0  0  0  0  0  0  0  0  0  0  0
   -9.1327  -23.2494   33.5841 C   0  0  0  0  0  0  0  0  0  0  0  0
   -7.8828  -22.1639   33.7252 C   0  0  0  0  0  0  0  0  0  0  0  0
   -1.5964  -19.6877   29.7490 C   0  0  0  0  0  0  0  0  0  0  0  0
   -0.9224  -20.0935   28.4273 C   0  0  0  0  0  0  0  0  0  0  0  0
    0.4070  -19.9831   28.3744 C   0  0  0  0  0  0  0  0  0  0  0  0
    1.0418  -19.2873   29.3778 N   0  0  0  0  0  0  0  0  0  0  0  0
    2.3802  -19.1417   29.6107 C   0  0  0  0  0  0  0  0  0  0  0  0
    2.4528  -18.2818   30.6705 C   0  0  0  0  0  0  0  0  0  0  0  0
    1.1935  -17.9351   31.1021 N   0  0  0  0  0  0  0  0  0  0  0  0
    0.3330  -18.6208   30.3760 C   0  0  0  0  0  0  0  0  0  0  0  0
   -1.0139  -18.8838   30.6072 N   0  0  0  0  0  0  0  0  0  0  0  0
   -3.0129  -19.9728   32.0531 H   0  0  0  0  0  0  0  0  0  0  0  0
   -5.2186  -21.8005   31.1113 H   0  0  0  0  0  0  0  0  0  0  0  0
   -5.4383  -20.6948   32.4261 H   0  0  0  0  0  0  0  0  0  0  0  0
   -6.5706  -23.3472   32.9375 H   0  0  0  0  0  0  0  0  0  0  0  0
   -8.1791  -23.6735   31.2633 H   0  0  0  0  0  0  0  0  0  0  0  0
   -7.5249  -22.4470   30.3367 H   0  0  0  0  0  0  0  0  0  0  0  0
   -9.3430  -21.0629   32.1400 H   0  0  0  0  0  0  0  0  0  0  0  0
   -9.8141  -21.7489   30.6300 H   0  0  0  0  0  0  0  0  0  0  0  0
  -12.1715  -23.6152   28.6160 H   0  0  0  0  0  0  0  0  0  0  0  0
  -12.3179  -26.1178   28.9078 H   0  0  0  0  0  0  0  0  0  0  0  0
  -11.3286  -26.9985   31.0178 H   0  0  0  0  0  0  0  0  0  0  0  0
   -9.7382  -23.1541   34.4878 H   0  0  0  0  0  0  0  0  0  0  0  0
   -8.7233  -24.2653   33.5401 H   0  0  0  0  0  0  0  0  0  0  0  0
   -7.4347  -22.2950   34.6993 H   0  0  0  0  0  0  0  0  0  0  0  0
   -8.2895  -21.1532   33.7156 H   0  0  0  0  0  0  0  0  0  0  0  0
   -1.4953  -20.6117   27.6689 H   0  0  0  0  0  0  0  0  0  0  0  0
    1.0056  -20.3958   27.5724 H   0  0  0  0  0  0  0  0  0  0  0  0
    3.1306  -19.6618   29.0350 H   0  0  0  0  0  0  0  0  0  0  0  0
    3.3387  -17.9135   31.1728 H   0  0  0  0  0  0  0  0  0  0  0  0
  1  2  2  0
  2  3  1  0
  3  4  1  0
  4  5  1  0
  5  6  1  0
  6  7  1  0
  7  8  1  0
  8  9  1  0
  9 10  2  0
 10 11  1  0
 11 12  2  0
 12 13  1  0
 13 14  2  0
  8 15  1  0
 15 16  1  0
  2 17  1  0
 17 18  1  0
 18 19  2  0
 19 20  1  0
 20 21  1  0
 21 22  2  0
 22 23  1  0
 23 24  2  0
 24 25  1  0
 16  5  1  0
 25 17  2  0
 14  9  1  0
 24 20  1  0
  3 26  1  0
  4 27  1  0
  4 28  1  0
  5 29  1  0
  6 30  1  0
  6 31  1  0
  7 32  1  0
  7 33  1  0
 11 34  1  0
 12 35  1  0
 13 36  1  0
 15 37  1  0
 15 38  1  0
 16 39  1  0
 16 40  1  0
 18 41  1  0
 19 42  1  0
 21 43  1  0
 22 44  1  0
M  END
>  <Energy>  (1195) 
264.18125442558045

>  <compound_id>  (1195) 
81081

>  <target_id>  (1195) 
1

>  <reference_id>  (1195) 
54

>  <inspiration_ids>  (1195) 
[54, 106]

>  <energy_score>  (1195) 
237.1901444410086

>  <distance_score>  (1195) 
17.943293471513115

>  <path>  (1195) 
/opt/xchem-fragalysis-2/maxwin/BulkDock/SCRATCH/511024/C81081-P54/C81081-P54.minimised.mol

>  <scratch_subdir>  (1195) 
/opt/xchem-fragalysis-2/maxwin/BulkDock/SCRATCH/511024/C81081-P54

>  <fragmenstein_runtime>  (1195) 
22.666606903076172

>  <fragmenstein_outcome>  (1195) 
too moved

>  <fragmenstein_mode>  (1195) 
expansion

>  <fragmenstein_error>  (1195) 


$$$$
C81081-P106
     RDKit          3D

 44 47  0  0  0  0  0  0  0  0999 V2000
    4.5556   -9.9648   27.0843 O   0  0  0  0  0  0  0  0  0  0  0  0
    4.3118  -10.3496   28.1642 C   0  0  0  0  0  0  0  0  0  0  0  0
    2.6831  -11.2138   28.4661 N   0  0  0  0  0  0  0  0  0  0  0  0
    1.1876  -11.7875   27.1983 C   0  0  0  0  0  0  0  0  0  0  0  0
    0.1056  -13.7221   27.1508 C   0  0  0  0  0  0  0  0  0  0  0  0
   -1.6298  -14.7979   27.5208 C   0  0  0  0  0  0  0  0  0  0  0  0
   -2.6464  -15.0183   29.1353 C   0  0  0  0  0  0  0  0  0  0  0  0
   -2.3113  -15.6083   30.4919 N   0  0  0  0  0  0  0  0  0  0  0  0
   -3.2236  -16.6886   30.9104 C   0  0  0  0  0  0  0  0  0  0  0  0
   -4.4124  -16.9295   30.3241 N   0  0  0  0  0  0  0  0  0  0  0  0
   -5.1028  -17.9617   30.8133 C   0  0  0  0  0  0  0  0  0  0  0  0
   -4.5679  -18.9854   31.4898 C   0  0  0  0  0  0  0  0  0  0  0  0
   -3.3197  -18.7225   31.8698 C   0  0  0  0  0  0  0  0  0  0  0  0
   -2.8296  -17.4965   31.8618 N   0  0  0  0  0  0  0  0  0  0  0  0
   -0.5807  -15.3468   30.5781 C   0  0  0  0  0  0  0  0  0  0  0  0
    0.0490  -15.1744   28.7666 C   0  0  0  0  0  0  0  0  0  0  0  0
    5.5441  -10.1269   29.0529 C   0  0  0  0  0  0  0  0  0  0  0  0
    6.6217  -11.1755   28.9718 C   0  0  0  0  0  0  0  0  0  0  0  0
    7.6170  -10.9778   28.0715 C   0  0  0  0  0  0  0  0  0  0  0  0
    7.7161   -9.7574   27.4026 N   0  0  0  0  0  0  0  0  0  0  0  0
    8.5196   -9.3257   26.3738 C   0  0  0  0  0  0  0  0  0  0  0  0
    8.1616   -8.0128   26.1624 C   0  0  0  0  0  0  0  0  0  0  0  0
    7.1936   -7.6215   27.0609 N   0  0  0  0  0  0  0  0  0  0  0  0
    6.9369   -8.6855   27.8046 C   0  0  0  0  0  0  0  0  0  0  0  0
    6.0339   -8.8607   28.8423 N   0  0  0  0  0  0  0  0  0  0  0  0
    2.5948  -11.4047   29.4667 H   0  0  0  0  0  0  0  0  0  0  0  0
    0.6053  -10.9333   27.6406 H   0  0  0  0  0  0  0  0  0  0  0  0
    1.3804  -11.6601   26.1601 H   0  0  0  0  0  0  0  0  0  0  0  0
    0.9842  -14.0376   26.4762 H   0  0  0  0  0  0  0  0  0  0  0  0
   -2.2354  -14.6220   26.6214 H   0  0  0  0  0  0  0  0  0  0  0  0
   -1.5938  -15.8905   27.4626 H   0  0  0  0  0  0  0  0  0  0  0  0
   -3.2179  -15.8541   28.7045 H   0  0  0  0  0  0  0  0  0  0  0  0
   -2.9356  -14.0424   29.5046 H   0  0  0  0  0  0  0  0  0  0  0  0
   -6.1325  -18.0649   30.5854 H   0  0  0  0  0  0  0  0  0  0  0  0
   -5.0977  -19.8810   31.7577 H   0  0  0  0  0  0  0  0  0  0  0  0
   -2.7240  -19.3886   32.4643 H   0  0  0  0  0  0  0  0  0  0  0  0
   -0.3745  -14.4792   31.2144 H   0  0  0  0  0  0  0  0  0  0  0  0
   -0.0408  -16.2078   30.9702 H   0  0  0  0  0  0  0  0  0  0  0  0
    0.6432  -16.1004   28.6988 H   0  0  0  0  0  0  0  0  0  0  0  0
   -0.8658  -14.8888   29.0106 H   0  0  0  0  0  0  0  0  0  0  0  0
    6.5157  -12.0031   29.6456 H   0  0  0  0  0  0  0  0  0  0  0  0
    8.3898  -11.7095   27.8734 H   0  0  0  0  0  0  0  0  0  0  0  0
    9.2352   -9.9740   25.8904 H   0  0  0  0  0  0  0  0  0  0  0  0
    8.5541   -7.3241   25.4251 H   0  0  0  0  0  0  0  0  0  0  0  0
  1  2  2  0
  2  3  1  0
  3  4  1  0
  4  5  1  0
  5  6  1  0
  6  7  1  0
  7  8  1  0
  8  9  1  0
  9 10  2  0
 10 11  1  0
 11 12  2  0
 12 13  1  0
 13 14  2  0
  8 15  1  0
 15 16  1  0
  2 17  1  0
 17 18  1  0
 18 19  2  0
 19 20  1  0
 20 21  1  0
 21 22  2  0
 22 23  1  0
 23 24  2  0
 24 25  1  0
 16  5  1  0
 25 17  2  0
 14  9  1  0
 24 20  1  0
  3 26  1  0
  4 27  1  0
  4 28  1  0
  5 29  1  0
  6 30  1  0
  6 31  1  0
  7 32  1  0
  7 33  1  0
 11 34  1  0
 12 35  1  0
 13 36  1  0
 15 37  1  0
 15 38  1  0
 16 39  1  0
 16 40  1  0
 18 41  1  0
 19 42  1  0
 21 43  1  0
 22 44  1  0
M  END
>  <Energy>  (1196) 
926.01935091462201

>  <compound_id>  (1196) 
81081

>  <target_id>  (1196) 
1

>  <reference_id>  (1196) 
106

>  <inspiration_ids>  (1196) 
[54, 106]

>  <energy_score>  (1196) 
899.02824093005

>  <distance_score>  (1196) 
13.513128895029352

>  <path>  (1196) 
/opt/xchem-fragalysis-2/maxwin/BulkDock/SCRATCH/511024/C81081-P106/C81081-P106.minimised.mol

>  <scratch_subdir>  (1196) 
/opt/xchem-fragalysis-2/maxwin/BulkDock/SCRATCH/511024/C81081-P106

>  <fragmenstein_runtime>  (1196) 
25.344175338745117

>  <fragmenstein_outcome>  (1196) 
too moved

>  <fragmenstein_mode>  (1196) 
expansion

>  <fragmenstein_error>  (1196) 


$$$$
C81082-P54
     RDKit          3D

 44 47  0  0  0  0  0  0  0  0999 V2000
    9.1891  -14.0165   32.9582 O   0  0  0  0  0  0  0  0  0  0  0  0
    8.5536  -14.5197   32.0687 C   0  0  0  0  0  0  0  0  0  0  0  0
    7.4571  -15.5473   32.1150 N   0  0  0  0  0  0  0  0  0  0  0  0
    6.7229  -16.2101   33.3367 C   0  0  0  0  0  0  0  0  0  0  0  0
    5.5267  -17.3944   33.2410 C   0  0  0  0  0  0  0  0  0  0  0  0
    6.0902  -18.7117   33.8337 C   0  0  0  0  0  0  0  0  0  0  0  0
    5.4305  -19.1336   35.1417 C   0  0  0  0  0  0  0  0  0  0  0  0
    3.9617  -19.4399   34.9385 C   0  0  0  0  0  0  0  0  0  0  0  0
    3.2843  -18.3291   34.2908 N   0  0  0  0  0  0  0  0  0  0  0  0
    1.8929  -18.4997   34.3233 C   0  0  0  0  0  0  0  0  0  0  0  0
    1.4404  -19.7806   34.3806 N   0  0  0  0  0  0  0  0  0  0  0  0
    0.1255  -20.0338   34.3059 C   0  0  0  0  0  0  0  0  0  0  0  0
   -0.7933  -19.0400   34.2009 C   0  0  0  0  0  0  0  0  0  0  0  0
   -0.2861  -17.7638   34.1875 C   0  0  0  0  0  0  0  0  0  0  0  0
    1.0414  -17.4729   34.2105 N   0  0  0  0  0  0  0  0  0  0  0  0
    4.0614  -17.0962   33.9369 C   0  0  0  0  0  0  0  0  0  0  0  0
    8.9613  -13.8257   30.6188 C   0  0  0  0  0  0  0  0  0  0  0  0
    9.6544  -14.6652   29.5708 C   0  0  0  0  0  0  0  0  0  0  0  0
   10.1449  -14.0306   28.4821 C   0  0  0  0  0  0  0  0  0  0  0  0
    9.9992  -12.6551   28.3446 N   0  0  0  0  0  0  0  0  0  0  0  0
   10.3825  -11.8111   27.3258 C   0  0  0  0  0  0  0  0  0  0  0  0
    9.9608  -10.5633   27.7147 C   0  0  0  0  0  0  0  0  0  0  0  0
    9.3428  -10.6259   28.9459 N   0  0  0  0  0  0  0  0  0  0  0  0
    9.3633  -11.8997   29.3266 C   0  0  0  0  0  0  0  0  0  0  0  0
    8.8508  -12.5114   30.4688 N   0  0  0  0  0  0  0  0  0  0  0  0
    7.2018  -15.8047   31.1692 H   0  0  0  0  0  0  0  0  0  0  0  0
    7.5408  -16.5680   33.9717 H   0  0  0  0  0  0  0  0  0  0  0  0
    6.2912  -15.3629   33.8827 H   0  0  0  0  0  0  0  0  0  0  0  0
    5.3548  -17.5687   32.1722 H   0  0  0  0  0  0  0  0  0  0  0  0
    7.1724  -18.6414   33.9893 H   0  0  0  0  0  0  0  0  0  0  0  0
    5.9709  -19.5203   33.1089 H   0  0  0  0  0  0  0  0  0  0  0  0
    5.5623  -18.3464   35.8945 H   0  0  0  0  0  0  0  0  0  0  0  0
    5.9338  -20.0262   35.5317 H   0  0  0  0  0  0  0  0  0  0  0  0
    3.8807  -20.3470   34.3248 H   0  0  0  0  0  0  0  0  0  0  0  0
    3.5265  -19.6547   35.9240 H   0  0  0  0  0  0  0  0  0  0  0  0
   -0.1572  -21.0805   34.3333 H   0  0  0  0  0  0  0  0  0  0  0  0
   -1.8305  -19.2706   34.1218 H   0  0  0  0  0  0  0  0  0  0  0  0
   -0.9409  -16.8995   34.1211 H   0  0  0  0  0  0  0  0  0  0  0  0
    3.4803  -16.4790   33.2466 H   0  0  0  0  0  0  0  0  0  0  0  0
    4.2242  -16.5117   34.8497 H   0  0  0  0  0  0  0  0  0  0  0  0
    9.7584  -15.7275   29.7424 H   0  0  0  0  0  0  0  0  0  0  0  0
   10.6599  -14.5502   27.6840 H   0  0  0  0  0  0  0  0  0  0  0  0
   10.8903  -12.1681   26.4426 H   0  0  0  0  0  0  0  0  0  0  0  0
   10.0631   -9.6246   27.1862 H   0  0  0  0  0  0  0  0  0  0  0  0
  1  2  2  0
  2  3  1  0
  3  4  1  0
  4  5  1  0
  5  6  1  0
  6  7  1  0
  7  8  1  0
  8  9  1  0
  9 10  1  0
 10 11  2  0
 11 12  1  0
 12 13  2  0
 13 14  1  0
 14 15  2  0
  9 16  1  0
  2 17  1  0
 17 18  1  0
 18 19  2  0
 19 20  1  0
 20 21  1  0
 21 22  2  0
 22 23  1  0
 23 24  2  0
 24 25  1  0
 16  5  1  0
 25 17  2  0
 15 10  1  0
 24 20  1  0
  3 26  1  0
  4 27  1  0
  4 28  1  0
  5 29  1  0
  6 30  1  0
  6 31  1  0
  7 32  1  0
  7 33  1  0
  8 34  1  0
  8 35  1  0
 12 36  1  0
 13 37  1  0
 14 38  1  0
 16 39  1  0
 16 40  1  0
 18 41  1  0
 19 42  1  0
 21 43  1  0
 22 44  1  0
M  END
>  <Energy>  (1197) 
50.033866515380808

>  <compound_id>  (1197) 
81082

>  <target_id>  (1197) 
1

>  <reference_id>  (1197) 
54

>  <inspiration_ids>  (1197) 
[54, 106]

>  <energy_score>  (1197) 
32.05204111446335

>  <distance_score>  (1197) 
16.332385293447288

>  <path>  (1197) 
/opt/xchem-fragalysis-2/maxwin/BulkDock/SCRATCH/511024/C81082-P54/C81082-P54.minimised.mol

>  <scratch_subdir>  (1197) 
/opt/xchem-fragalysis-2/maxwin/BulkDock/SCRATCH/511024/C81082-P54

>  <fragmenstein_runtime>  (1197) 
23.966744661331177

>  <fragmenstein_outcome>  (1197) 
too moved

>  <fragmenstein_mode>  (1197) 
expansion

>  <fragmenstein_error>  (1197) 


$$$$
C81082-P106
     RDKit          3D

 44 47  0  0  0  0  0  0  0  0999 V2000
    3.7034  -14.3873   27.0890 O   0  0  0  0  0  0  0  0  0  0  0  0
    3.9919  -15.4020   26.5416 C   0  0  0  0  0  0  0  0  0  0  0  0
    2.9201  -16.9649   26.8197 N   0  0  0  0  0  0  0  0  0  0  0  0
    1.2381  -17.2189   27.7816 C   0  0  0  0  0  0  0  0  0  0  0  0
   -0.7168  -17.8356   27.3375 C   0  0  0  0  0  0  0  0  0  0  0  0
   -1.9355  -19.2913   27.0854 C   0  0  0  0  0  0  0  0  0  0  0  0
   -3.5737  -19.6710   27.7323 C   0  0  0  0  0  0  0  0  0  0  0  0
   -4.5839  -18.0360   28.3971 C   0  0  0  0  0  0  0  0  0  0  0  0
   -3.7105  -16.8803   28.4662 N   0  0  0  0  0  0  0  0  0  0  0  0
   -3.8877  -16.4239   29.9476 C   0  0  0  0  0  0  0  0  0  0  0  0
   -3.2019  -15.3639   30.4237 N   0  0  0  0  0  0  0  0  0  0  0  0
   -3.4629  -14.9104   31.6643 C   0  0  0  0  0  0  0  0  0  0  0  0
   -4.3611  -15.4849   32.5165 C   0  0  0  0  0  0  0  0  0  0  0  0
   -4.9714  -16.5895   32.0188 C   0  0  0  0  0  0  0  0  0  0  0  0
   -4.7542  -17.0349   30.7793 N   0  0  0  0  0  0  0  0  0  0  0  0
   -2.2464  -16.7506   27.4323 C   0  0  0  0  0  0  0  0  0  0  0  0
    5.4955  -15.0671   25.2861 C   0  0  0  0  0  0  0  0  0  0  0  0
    6.4274  -13.5749   25.6266 C   0  0  0  0  0  0  0  0  0  0  0  0
    7.6380  -13.4255   25.0793 C   0  0  0  0  0  0  0  0  0  0  0  0
    8.0385  -14.3483   24.1412 N   0  0  0  0  0  0  0  0  0  0  0  0
    9.1259  -14.2541   23.3043 C   0  0  0  0  0  0  0  0  0  0  0  0
    8.9526  -15.2535   22.3850 C   0  0  0  0  0  0  0  0  0  0  0  0
    7.8209  -15.9845   22.6676 N   0  0  0  0  0  0  0  0  0  0  0  0
    7.2587  -15.4653   23.7519 C   0  0  0  0  0  0  0  0  0  0  0  0
    6.0113  -15.8156   24.3136 N   0  0  0  0  0  0  0  0  0  0  0  0
    3.2548  -17.7027   26.2196 H   0  0  0  0  0  0  0  0  0  0  0  0
    1.2983  -17.2535   28.8793 H   0  0  0  0  0  0  0  0  0  0  0  0
    1.3096  -16.1552   28.0599 H   0  0  0  0  0  0  0  0  0  0  0  0
   -0.4995  -17.9565   26.2925 H   0  0  0  0  0  0  0  0  0  0  0  0
   -2.2085  -19.1820   26.0462 H   0  0  0  0  0  0  0  0  0  0  0  0
   -1.4570  -20.2621   27.3103 H   0  0  0  0  0  0  0  0  0  0  0  0
   -4.1885  -20.2506   27.0187 H   0  0  0  0  0  0  0  0  0  0  0  0
   -3.3279  -20.4332   28.5014 H   0  0  0  0  0  0  0  0  0  0  0  0
   -4.9181  -18.2350   29.3845 H   0  0  0  0  0  0  0  0  0  0  0  0
   -5.3941  -17.6879   27.7250 H   0  0  0  0  0  0  0  0  0  0  0  0
   -2.8940  -14.0311   31.9517 H   0  0  0  0  0  0  0  0  0  0  0  0
   -4.5529  -15.1024   33.5064 H   0  0  0  0  0  0  0  0  0  0  0  0
   -5.7014  -17.1569   32.5869 H   0  0  0  0  0  0  0  0  0  0  0  0
   -2.6110  -16.9276   26.4415 H   0  0  0  0  0  0  0  0  0  0  0  0
   -1.9464  -15.6942   27.5585 H   0  0  0  0  0  0  0  0  0  0  0  0
    5.9902  -12.8837   26.3371 H   0  0  0  0  0  0  0  0  0  0  0  0
    8.2776  -12.5748   25.2703 H   0  0  0  0  0  0  0  0  0  0  0  0
    9.8731  -13.4816   23.4082 H   0  0  0  0  0  0  0  0  0  0  0  0
    9.5771  -15.5010   21.5363 H   0  0  0  0  0  0  0  0  0  0  0  0
  1  2  2  0
  2  3  1  0
  3  4  1  0
  4  5  1  0
  5  6  1  0
  6  7  1  0
  7  8  1  0
  8  9  1  0
  9 10  1  0
 10 11  2  0
 11 12  1  0
 12 13  2  0
 13 14  1  0
 14 15  2  0
  9 16  1  0
  2 17  1  0
 17 18  1  0
 18 19  2  0
 19 20  1  0
 20 21  1  0
 21 22  2  0
 22 23  1  0
 23 24  2  0
 24 25  1  0
 16  5  1  0
 25 17  2  0
 15 10  1  0
 24 20  1  0
  3 26  1  0
  4 27  1  0
  4 28  1  0
  5 29  1  0
  6 30  1  0
  6 31  1  0
  7 32  1  0
  7 33  1  0
  8 34  1  0
  8 35  1  0
 12 36  1  0
 13 37  1  0
 14 38  1  0
 16 39  1  0
 16 40  1  0
 18 41  1  0
 19 42  1  0
 21 43  1  0
 22 44  1  0
M  END
>  <Energy>  (1198) 
618.10593784099569

>  <compound_id>  (1198) 
81082

>  <target_id>  (1198) 
1

>  <reference_id>  (1198) 
106

>  <inspiration_ids>  (1198) 
[54, 106]

>  <energy_score>  (1198) 
600.1241124400856

>  <distance_score>  (1198) 
14.159013378131258

>  <path>  (1198) 
/opt/xchem-fragalysis-2/maxwin/BulkDock/SCRATCH/511024/C81082-P106/C81082-P106.minimised.mol

>  <scratch_subdir>  (1198) 
/opt/xchem-fragalysis-2/maxwin/BulkDock/SCRATCH/511024/C81082-P106

>  <fragmenstein_runtime>  (1198) 
39.68137001991272

>  <fragmenstein_outcome>  (1198) 
too moved

>  <fragmenstein_mode>  (1198) 
expansion

>  <fragmenstein_error>  (1198) 


$$$$
C81084-P54
     RDKit          3D

 39 41  0  0  0  0  0  0  0  0999 V2000
   -2.5772  -20.3450   28.5633 C   0  0  0  0  0  0  0  0  0  0  0  0
   -2.3936  -20.1577   27.0537 C   0  0  0  0  0  0  0  0  0  0  0  0
   -3.7315  -19.8421   26.3895 C   0  0  0  0  0  0  0  0  0  0  0  0
   -1.4376  -19.0856   26.8924 O   0  0  0  0  0  0  0  0  0  0  0  0
   -0.7714  -19.0372   25.6700 C   0  0  0  0  0  0  0  0  0  0  0  0
   -1.3467  -19.6216   24.6146 N   0  0  0  0  0  0  0  0  0  0  0  0
   -0.6744  -19.5199   23.4576 C   0  0  0  0  0  0  0  0  0  0  0  0
    0.5493  -18.8776   23.3116 C   0  0  0  0  0  0  0  0  0  0  0  0
    1.1264  -18.3106   24.4395 C   0  0  0  0  0  0  0  0  0  0  0  0
    2.6746  -17.9265   24.3816 C   0  0  0  0  0  0  0  0  0  0  0  0
    3.2702  -16.6266   23.8648 N   0  0  0  0  0  0  0  0  0  0  0  0
    4.5017  -16.3690   23.0793 C   0  0  0  0  0  0  0  0  0  0  0  0
    5.2896  -17.1332   22.5900 O   0  0  0  0  0  0  0  0  0  0  0  0
    4.9625  -14.8314   22.8073 C   0  0  0  0  0  0  0  0  0  0  0  0
    5.6506  -14.0959   23.9373 C   0  0  0  0  0  0  0  0  0  0  0  0
    6.2265  -12.9117   23.6441 C   0  0  0  0  0  0  0  0  0  0  0  0
    6.1576  -12.4091   22.3521 N   0  0  0  0  0  0  0  0  0  0  0  0
    6.6853  -11.2567   21.8157 C   0  0  0  0  0  0  0  0  0  0  0  0
    6.3198  -11.2780   20.4924 C   0  0  0  0  0  0  0  0  0  0  0  0
    5.5872  -12.4070   20.2127 N   0  0  0  0  0  0  0  0  0  0  0  0
    5.4847  -13.0936   21.3419 C   0  0  0  0  0  0  0  0  0  0  0  0
    4.8827  -14.3212   21.5908 N   0  0  0  0  0  0  0  0  0  0  0  0
    0.4362  -18.3772   25.6322 N   0  0  0  0  0  0  0  0  0  0  0  0
   -1.6091  -20.5513   29.0337 H   0  0  0  0  0  0  0  0  0  0  0  0
   -3.2438  -21.1797   28.7866 H   0  0  0  0  0  0  0  0  0  0  0  0
   -2.9505  -19.4267   29.0240 H   0  0  0  0  0  0  0  0  0  0  0  0
   -1.9808  -21.0940   26.6554 H   0  0  0  0  0  0  0  0  0  0  0  0
   -3.9842  -18.7876   26.4950 H   0  0  0  0  0  0  0  0  0  0  0  0
   -3.6980  -20.0418   25.3143 H   0  0  0  0  0  0  0  0  0  0  0  0
   -4.5428  -20.4500   26.7996 H   0  0  0  0  0  0  0  0  0  0  0  0
   -1.1467  -20.0062   22.6073 H   0  0  0  0  0  0  0  0  0  0  0  0
    1.0661  -18.8929   22.3580 H   0  0  0  0  0  0  0  0  0  0  0  0
    3.0729  -18.0557   25.3916 H   0  0  0  0  0  0  0  0  0  0  0  0
    3.1634  -18.7143   23.7932 H   0  0  0  0  0  0  0  0  0  0  0  0
    2.8959  -15.7486   24.1901 H   0  0  0  0  0  0  0  0  0  0  0  0
    5.6873  -14.5580   24.9146 H   0  0  0  0  0  0  0  0  0  0  0  0
    6.7604  -12.3214   24.3778 H   0  0  0  0  0  0  0  0  0  0  0  0
    7.2543  -10.5548   22.4063 H   0  0  0  0  0  0  0  0  0  0  0  0
    6.5392  -10.5517   19.7213 H   0  0  0  0  0  0  0  0  0  0  0  0
  1  2  1  0
  2  3  1  0
  2  4  1  0
  4  5  1  0
  5  6  2  0
  6  7  1  0
  7  8  2  0
  8  9  1  0
  9 10  1  0
 10 11  1  0
 11 12  1  0
 12 13  2  0
 12 14  1  0
 14 15  1  0
 15 16  2  0
 16 17  1  0
 17 18  1  0
 18 19  2  0
 19 20  1  0
 20 21  2  0
 21 22  1  0
  9 23  2  0
 23  5  1  0
 22 14  2  0
 21 17  1  0
  1 24  1  0
  1 25  1  0
  1 26  1  0
  2 27  1  0
  3 28  1  0
  3 29  1  0
  3 30  1  0
  7 31  1  0
  8 32  1  0
 10 33  1  0
 10 34  1  0
 11 35  1  0
 15 36  1  0
 16 37  1  0
 18 38  1  0
 19 39  1  0
M  END
>  <Energy>  (1199) 
59.270929892689466

>  <compound_id>  (1199) 
81084

>  <target_id>  (1199) 
1

>  <reference_id>  (1199) 
54

>  <inspiration_ids>  (1199) 
[54, 106]

>  <energy_score>  (1199) 
10.745176766888676

>  <distance_score>  (1199) 
14.108601195153906

>  <path>  (1199) 
/opt/xchem-fragalysis-2/maxwin/BulkDock/SCRATCH/511024/C81084-P54/C81084-P54.minimised.mol

>  <scratch_subdir>  (1199) 
/opt/xchem-fragalysis-2/maxwin/BulkDock/SCRATCH/511024/C81084-P54

>  <fragmenstein_runtime>  (1199) 
19.04998540878296

>  <fragmenstein_outcome>  (1199) 
too moved

>  <fragmenstein_mode>  (1199) 
expansion

>  <fragmenstein_error>  (1199) 


$$$$
C81084-P106
     RDKit          3D

 39 41  0  0  0  0  0  0  0  0999 V2000
   -8.0318  -14.8332   25.7587 C   0  0  0  0  0  0  0  0  0  0  0  0
   -6.9957  -13.4452   26.3419 C   0  0  0  0  0  0  0  0  0  0  0  0
   -7.9087  -13.2217   27.6242 C   0  0  0  0  0  0  0  0  0  0  0  0
   -6.3253  -12.1399   25.2314 O   0  0  0  0  0  0  0  0  0  0  0  0
   -4.7922  -11.9489   24.3868 C   0  0  0  0  0  0  0  0  0  0  0  0
   -3.6922  -12.4384   24.7217 N   0  0  0  0  0  0  0  0  0  0  0  0
   -3.0117  -12.3578   25.7710 C   0  0  0  0  0  0  0  0  0  0  0  0
   -2.3267  -11.3254   25.3755 C   0  0  0  0  0  0  0  0  0  0  0  0
   -2.7294   -9.9614   24.1134 C   0  0  0  0  0  0  0  0  0  0  0  0
   -2.0939   -9.0502   22.6968 C   0  0  0  0  0  0  0  0  0  0  0  0
   -0.7227   -8.4187   22.4783 N   0  0  0  0  0  0  0  0  0  0  0  0
   -0.3450   -7.1062   21.9459 C   0  0  0  0  0  0  0  0  0  0  0  0
   -1.0230   -6.1692   21.6234 O   0  0  0  0  0  0  0  0  0  0  0  0
    1.2084   -6.8677   21.6194 C   0  0  0  0  0  0  0  0  0  0  0  0
    1.8750   -7.8573   20.7071 C   0  0  0  0  0  0  0  0  0  0  0  0
    3.1100   -7.5680   20.2625 C   0  0  0  0  0  0  0  0  0  0  0  0
    3.7165   -6.3949   20.6664 N   0  0  0  0  0  0  0  0  0  0  0  0
    4.9534   -5.8891   20.3524 C   0  0  0  0  0  0  0  0  0  0  0  0
    5.0336   -4.7079   21.0457 C   0  0  0  0  0  0  0  0  0  0  0  0
    3.8845   -4.4771   21.7591 N   0  0  0  0  0  0  0  0  0  0  0  0
    3.0839   -5.5068   21.5336 C   0  0  0  0  0  0  0  0  0  0  0  0
    1.8092   -5.7571   22.0040 N   0  0  0  0  0  0  0  0  0  0  0  0
   -3.8829  -10.6631   23.7601 N   0  0  0  0  0  0  0  0  0  0  0  0
   -8.1478  -15.6859   26.4412 H   0  0  0  0  0  0  0  0  0  0  0  0
   -7.7681  -15.1781   24.7629 H   0  0  0  0  0  0  0  0  0  0  0  0
   -9.1005  -14.5554   25.7562 H   0  0  0  0  0  0  0  0  0  0  0  0
   -6.1810  -13.6961   26.8963 H   0  0  0  0  0  0  0  0  0  0  0  0
   -8.2754  -14.1812   27.9641 H   0  0  0  0  0  0  0  0  0  0  0  0
   -7.3286  -12.9483   28.5131 H   0  0  0  0  0  0  0  0  0  0  0  0
   -8.8109  -12.6209   27.4646 H   0  0  0  0  0  0  0  0  0  0  0  0
   -3.4048  -12.4630   26.7609 H   0  0  0  0  0  0  0  0  0  0  0  0
   -2.3137  -10.8399   26.3758 H   0  0  0  0  0  0  0  0  0  0  0  0
   -2.8348   -8.2822   22.4543 H   0  0  0  0  0  0  0  0  0  0  0  0
   -2.1913   -9.7203   21.8269 H   0  0  0  0  0  0  0  0  0  0  0  0
    0.1134   -8.9982   22.5608 H   0  0  0  0  0  0  0  0  0  0  0  0
    1.3310   -8.7448   20.4299 H   0  0  0  0  0  0  0  0  0  0  0  0
    3.6540   -8.2207   19.5938 H   0  0  0  0  0  0  0  0  0  0  0  0
    5.6363   -6.3981   19.6909 H   0  0  0  0  0  0  0  0  0  0  0  0
    5.8515   -4.0047   21.0822 H   0  0  0  0  0  0  0  0  0  0  0  0
  1  2  1  0
  2  3  1  0
  2  4  1  0
  4  5  1  0
  5  6  2  0
  6  7  1  0
  7  8  2  0
  8  9  1  0
  9 10  1  0
 10 11  1  0
 11 12  1  0
 12 13  2  0
 12 14  1  0
 14 15  1  0
 15 16  2  0
 16 17  1  0
 17 18  1  0
 18 19  2  0
 19 20  1  0
 20 21  2  0
 21 22  1  0
  9 23  2  0
 23  5  1  0
 22 14  2  0
 21 17  1  0
  1 24  1  0
  1 25  1  0
  1 26  1  0
  2 27  1  0
  3 28  1  0
  3 29  1  0
  3 30  1  0
  7 31  1  0
  8 32  1  0
 10 33  1  0
 10 34  1  0
 11 35  1  0
 15 36  1  0
 16 37  1  0
 18 38  1  0
 19 39  1  0
M  END
>  <Energy>  (1200) 
600.09851851215035

>  <compound_id>  (1200) 
81084

>  <target_id>  (1200) 
1

>  <reference_id>  (1200) 
106

>  <inspiration_ids>  (1200) 
[54, 106]

>  <energy_score>  (1200) 
551.5727653863521

>  <distance_score>  (1200) 
13.543342481181547

>  <path>  (1200) 
/opt/xchem-fragalysis-2/maxwin/BulkDock/SCRATCH/511024/C81084-P106/C81084-P106.minimised.mol

>  <scratch_subdir>  (1200) 
/opt/xchem-fragalysis-2/maxwin/BulkDock/SCRATCH/511024/C81084-P106

>  <fragmenstein_runtime>  (1200) 
29.031347274780273

>  <fragmenstein_outcome>  (1200) 
too moved

>  <fragmenstein_mode>  (1200) 
expansion

>  <fragmenstein_error>  (1200) 


$$$$
C81077-P54
     RDKit          3D

 45 47  0  0  0  0  0  0  0  0999 V2000
   -5.2288  -20.8806   25.0266 C   0  0  0  0  0  0  0  0  0  0  0  0
   -5.3363  -19.8585   26.3367 C   0  0  0  0  0  0  0  0  0  0  0  0
   -4.2431  -20.5601   27.2366 C   0  0  0  0  0  0  0  0  0  0  0  0
   -6.6420  -20.2128   26.9279 C   0  0  0  0  0  0  0  0  0  0  0  0
   -5.1879  -18.1917   25.7098 C   0  0  0  0  0  0  0  0  0  0  0  0
   -4.2873  -18.7548   24.7431 N   0  0  0  0  0  0  0  0  0  0  0  0
   -2.9385  -18.2868   24.7554 C   0  0  0  0  0  0  0  0  0  0  0  0
   -2.2690  -16.8694   25.3064 C   0  0  0  0  0  0  0  0  0  0  0  0
   -3.2258  -15.7497   26.0109 C   0  0  0  0  0  0  0  0  0  0  0  0
   -2.4698  -14.1909   25.2348 C   0  0  0  0  0  0  0  0  0  0  0  0
   -2.2729  -12.9863   23.5236 C   0  0  0  0  0  0  0  0  0  0  0  0
   -0.7870  -12.6573   22.1441 C   0  0  0  0  0  0  0  0  0  0  0  0
    0.8846  -11.7004   21.6331 N   0  0  0  0  0  0  0  0  0  0  0  0
    2.3850  -11.6764   20.9439 C   0  0  0  0  0  0  0  0  0  0  0  0
    3.7156  -12.2082   21.5396 C   0  0  0  0  0  0  0  0  0  0  0  0
    4.9065  -11.9220   20.9743 C   0  0  0  0  0  0  0  0  0  0  0  0
    4.9632  -11.1595   19.8291 N   0  0  0  0  0  0  0  0  0  0  0  0
    6.0431  -10.6798   19.1257 C   0  0  0  0  0  0  0  0  0  0  0  0
    5.5022   -9.9108   18.1253 C   0  0  0  0  0  0  0  0  0  0  0  0
    4.1340   -9.8859   18.2262 N   0  0  0  0  0  0  0  0  0  0  0  0
    3.8103  -10.6808   19.2395 C   0  0  0  0  0  0  0  0  0  0  0  0
    2.5815  -10.9152   19.8296 N   0  0  0  0  0  0  0  0  0  0  0  0
   -4.8270  -16.5683   26.4439 N   0  0  0  0  0  0  0  0  0  0  0  0
   -5.6881  -21.8503   25.1747 H   0  0  0  0  0  0  0  0  0  0  0  0
   -4.1834  -21.0952   24.7627 H   0  0  0  0  0  0  0  0  0  0  0  0
   -5.6747  -20.4818   24.1095 H   0  0  0  0  0  0  0  0  0  0  0  0
   -4.7866  -21.2348   27.8418 H   0  0  0  0  0  0  0  0  0  0  0  0
   -3.4618  -21.0817   26.6743 H   0  0  0  0  0  0  0  0  0  0  0  0
   -3.7241  -20.0797   28.0647 H   0  0  0  0  0  0  0  0  0  0  0  0
   -7.0540  -21.0145   26.3573 H   0  0  0  0  0  0  0  0  0  0  0  0
   -7.2613  -19.3485   26.9210 H   0  0  0  0  0  0  0  0  0  0  0  0
   -6.6457  -20.6505   27.9189 H   0  0  0  0  0  0  0  0  0  0  0  0
   -2.4530  -19.0152   24.1163 H   0  0  0  0  0  0  0  0  0  0  0  0
   -1.2787  -16.5326   25.0467 H   0  0  0  0  0  0  0  0  0  0  0  0
   -2.8770  -14.8707   24.4459 H   0  0  0  0  0  0  0  0  0  0  0  0
   -2.7389  -13.4823   25.9813 H   0  0  0  0  0  0  0  0  0  0  0  0
   -2.7518  -12.0451   23.7031 H   0  0  0  0  0  0  0  0  0  0  0  0
   -2.9094  -13.6483   22.9071 H   0  0  0  0  0  0  0  0  0  0  0  0
   -0.0252  -13.0442   22.6189 H   0  0  0  0  0  0  0  0  0  0  0  0
   -1.1412  -12.9331   21.1597 H   0  0  0  0  0  0  0  0  0  0  0  0
    0.5591  -10.7396   21.4957 H   0  0  0  0  0  0  0  0  0  0  0  0
    3.7317  -12.6705   22.5051 H   0  0  0  0  0  0  0  0  0  0  0  0
    5.8465  -12.2299   21.4130 H   0  0  0  0  0  0  0  0  0  0  0  0
    7.0595  -10.9333   19.3868 H   0  0  0  0  0  0  0  0  0  0  0  0
    6.0151   -9.3754   17.3377 H   0  0  0  0  0  0  0  0  0  0  0  0
  1  2  1  0
  2  3  1  0
  2  4  1  0
  2  5  1  0
  5  6  2  0
  6  7  1  0
  7  8  2  0
  8  9  1  0
  9 10  1  0
 10 11  1  0
 11 12  1  0
 12 13  1  0
 13 14  1  0
 14 15  1  0
 15 16  2  0
 16 17  1  0
 17 18  1  0
 18 19  2  0
 19 20  1  0
 20 21  2  0
 21 22  1  0
  9 23  2  0
 23  5  1  0
 22 14  2  0
 21 17  1  0
  1 24  1  0
  1 25  1  0
  1 26  1  0
  3 27  1  0
  3 28  1  0
  3 29  1  0
  4 30  1  0
  4 31  1  0
  4 32  1  0
  7 33  1  0
  8 34  1  0
 10 35  1  0
 10 36  1  0
 11 37  1  0
 11 38  1  0
 12 39  1  0
 12 40  1  0
 13 41  1  0
 15 42  1  0
 16 43  1  0
 18 44  1  0
 19 45  1  0
M  END
>  <Energy>  (1201) 
807.58666151797217

>  <compound_id>  (1201) 
81077

>  <target_id>  (1201) 
1

>  <reference_id>  (1201) 
54

>  <inspiration_ids>  (1201) 
[54, 106]

>  <energy_score>  (1201) 
766.1495830924121

>  <distance_score>  (1201) 
12.39048827042476

>  <path>  (1201) 
/opt/xchem-fragalysis-2/maxwin/BulkDock/SCRATCH/511024/C81077-P54/C81077-P54.minimised.mol

>  <scratch_subdir>  (1201) 
/opt/xchem-fragalysis-2/maxwin/BulkDock/SCRATCH/511024/C81077-P54

>  <fragmenstein_runtime>  (1201) 
19.513497591018677

>  <fragmenstein_outcome>  (1201) 
too moved

>  <fragmenstein_mode>  (1201) 
expansion

>  <fragmenstein_error>  (1201) 


$$$$
C81077-P106
     RDKit          3D

 45 47  0  0  0  0  0  0  0  0999 V2000
   -1.1956  -16.2264   33.0428 C   0  0  0  0  0  0  0  0  0  0  0  0
   -2.2237  -15.1036   32.8709 C   0  0  0  0  0  0  0  0  0  0  0  0
   -3.1744  -15.1552   34.0942 C   0  0  0  0  0  0  0  0  0  0  0  0
   -3.1067  -15.3564   31.6320 C   0  0  0  0  0  0  0  0  0  0  0  0
   -1.5695  -13.6933   32.6997 C   0  0  0  0  0  0  0  0  0  0  0  0
   -2.4876  -12.7306   32.5070 N   0  0  0  0  0  0  0  0  0  0  0  0
   -2.0210  -11.5109   32.2121 C   0  0  0  0  0  0  0  0  0  0  0  0
   -0.6811  -11.1634   32.1304 C   0  0  0  0  0  0  0  0  0  0  0  0
    0.2549  -12.1502   32.3698 C   0  0  0  0  0  0  0  0  0  0  0  0
    1.8514  -11.7103   32.3275 C   0  0  0  0  0  0  0  0  0  0  0  0
    2.4542  -10.7218   31.1144 C   0  0  0  0  0  0  0  0  0  0  0  0
    4.0588  -10.5841   30.6472 C   0  0  0  0  0  0  0  0  0  0  0  0
    4.3462   -9.6240   29.4650 N   0  0  0  0  0  0  0  0  0  0  0  0
    5.4945   -9.2896   28.6795 C   0  0  0  0  0  0  0  0  0  0  0  0
    6.8458   -9.9644   28.7646 C   0  0  0  0  0  0  0  0  0  0  0  0
    7.8082   -9.6024   27.8874 C   0  0  0  0  0  0  0  0  0  0  0  0
    7.5552   -8.6225   26.9383 N   0  0  0  0  0  0  0  0  0  0  0  0
    8.3337   -8.1172   25.9222 C   0  0  0  0  0  0  0  0  0  0  0  0
    7.5421   -7.1880   25.2886 C   0  0  0  0  0  0  0  0  0  0  0  0
    6.3161   -7.1048   25.9037 N   0  0  0  0  0  0  0  0  0  0  0  0
    6.3302   -7.9823   26.8954 C   0  0  0  0  0  0  0  0  0  0  0  0
    5.3303   -8.3287   27.7824 N   0  0  0  0  0  0  0  0  0  0  0  0
   -0.1937  -13.4439   32.6667 N   0  0  0  0  0  0  0  0  0  0  0  0
   -0.4503  -16.2120   32.2408 H   0  0  0  0  0  0  0  0  0  0  0  0
   -0.6414  -16.1047   33.9814 H   0  0  0  0  0  0  0  0  0  0  0  0
   -1.6686  -17.2142   33.0648 H   0  0  0  0  0  0  0  0  0  0  0  0
   -2.6255  -14.9452   35.0196 H   0  0  0  0  0  0  0  0  0  0  0  0
   -3.6425  -16.1411   34.1947 H   0  0  0  0  0  0  0  0  0  0  0  0
   -3.9761  -14.4115   34.0198 H   0  0  0  0  0  0  0  0  0  0  0  0
   -3.4747  -16.3878   31.6025 H   0  0  0  0  0  0  0  0  0  0  0  0
   -2.5633  -15.1427   30.7100 H   0  0  0  0  0  0  0  0  0  0  0  0
   -3.9905  -14.7061   31.6226 H   0  0  0  0  0  0  0  0  0  0  0  0
   -2.7910  -10.7654   32.0441 H   0  0  0  0  0  0  0  0  0  0  0  0
   -0.3923  -10.1492   31.8941 H   0  0  0  0  0  0  0  0  0  0  0  0
    2.4572  -12.6208   32.3965 H   0  0  0  0  0  0  0  0  0  0  0  0
    2.0136  -11.1735   33.2718 H   0  0  0  0  0  0  0  0  0  0  0  0
    2.1871   -9.7335   31.4899 H   0  0  0  0  0  0  0  0  0  0  0  0
    1.8729  -10.9043   30.2054 H   0  0  0  0  0  0  0  0  0  0  0  0
    4.4345  -11.5722   30.3807 H   0  0  0  0  0  0  0  0  0  0  0  0
    4.6211  -10.2187   31.5124 H   0  0  0  0  0  0  0  0  0  0  0  0
    3.5392   -9.0231   29.2741 H   0  0  0  0  0  0  0  0  0  0  0  0
    6.9869  -10.7279   29.5167 H   0  0  0  0  0  0  0  0  0  0  0  0
    8.7912  -10.0554   27.8786 H   0  0  0  0  0  0  0  0  0  0  0  0
    9.3415   -8.4604   25.7420 H   0  0  0  0  0  0  0  0  0  0  0  0
    7.7802   -6.5740   24.4294 H   0  0  0  0  0  0  0  0  0  0  0  0
  1  2  1  0
  2  3  1  0
  2  4  1  0
  2  5  1  0
  5  6  2  0
  6  7  1  0
  7  8  2  0
  8  9  1  0
  9 10  1  0
 10 11  1  0
 11 12  1  0
 12 13  1  0
 13 14  1  0
 14 15  1  0
 15 16  2  0
 16 17  1  0
 17 18  1  0
 18 19  2  0
 19 20  1  0
 20 21  2  0
 21 22  1  0
  9 23  2  0
 23  5  1  0
 22 14  2  0
 21 17  1  0
  1 24  1  0
  1 25  1  0
  1 26  1  0
  3 27  1  0
  3 28  1  0
  3 29  1  0
  4 30  1  0
  4 31  1  0
  4 32  1  0
  7 33  1  0
  8 34  1  0
 10 35  1  0
 10 36  1  0
 11 37  1  0
 11 38  1  0
 12 39  1  0
 12 40  1  0
 13 41  1  0
 15 42  1  0
 16 43  1  0
 18 44  1  0
 19 45  1  0
M  END
>  <Energy>  (1202) 
40.284154526113419

>  <compound_id>  (1202) 
81077

>  <target_id>  (1202) 
1

>  <reference_id>  (1202) 
106

>  <inspiration_ids>  (1202) 
[54, 106]

>  <energy_score>  (1202) 
-1.152923899447842

>  <distance_score>  (1202) 
14.589764721276016

>  <path>  (1202) 
/opt/xchem-fragalysis-2/maxwin/BulkDock/SCRATCH/511024/C81077-P106/C81077-P106.minimised.mol

>  <scratch_subdir>  (1202) 
/opt/xchem-fragalysis-2/maxwin/BulkDock/SCRATCH/511024/C81077-P106

>  <fragmenstein_runtime>  (1202) 
27.05187726020813

>  <fragmenstein_outcome>  (1202) 
too moved

>  <fragmenstein_mode>  (1202) 
expansion

>  <fragmenstein_error>  (1202) 


$$$$
C81080-P54
     RDKit          3D

 36 38  0  0  0  0  0  0  0  0999 V2000
   -2.6177  -20.7525   28.3534 C   0  0  0  0  0  0  0  0  0  0  0  0
   -3.0711  -19.5182   27.8144 O   0  0  0  0  0  0  0  0  0  0  0  0
   -2.0112  -18.6763   27.5110 C   0  0  0  0  0  0  0  0  0  0  0  0
   -0.7512  -19.1470   27.5131 N   0  0  0  0  0  0  0  0  0  0  0  0
    0.2469  -18.2452   27.2870 C   0  0  0  0  0  0  0  0  0  0  0  0
    0.0622  -16.8952   27.0511 C   0  0  0  0  0  0  0  0  0  0  0  0
    1.1812  -15.8337   27.0261 C   0  0  0  0  0  0  0  0  0  0  0  0
    2.5425  -15.9547   26.1905 C   0  0  0  0  0  0  0  0  0  0  0  0
    3.4062  -14.7182   25.9219 N   0  0  0  0  0  0  0  0  0  0  0  0
    4.5981  -14.5363   25.0547 C   0  0  0  0  0  0  0  0  0  0  0  0
    5.2253  -15.3358   24.4114 O   0  0  0  0  0  0  0  0  0  0  0  0
    5.2764  -13.0658   24.9269 C   0  0  0  0  0  0  0  0  0  0  0  0
    6.3190  -12.7198   25.9662 C   0  0  0  0  0  0  0  0  0  0  0  0
    7.1177  -11.6630   25.7178 C   0  0  0  0  0  0  0  0  0  0  0  0
    6.9397  -10.9186   24.5631 N   0  0  0  0  0  0  0  0  0  0  0  0
    7.6446   -9.8372   24.0860 C   0  0  0  0  0  0  0  0  0  0  0  0
    7.0339   -9.5003   22.9052 C   0  0  0  0  0  0  0  0  0  0  0  0
    5.9834  -10.3456   22.6607 N   0  0  0  0  0  0  0  0  0  0  0  0
    5.9278  -11.2195   23.6582 C   0  0  0  0  0  0  0  0  0  0  0  0
    5.0957  -12.3230   23.8503 N   0  0  0  0  0  0  0  0  0  0  0  0
   -1.2903  -16.5517   27.0483 C   0  0  0  0  0  0  0  0  0  0  0  0
   -2.3324  -17.4054   27.2511 N   0  0  0  0  0  0  0  0  0  0  0  0
   -2.0476  -21.3257   27.6136 H   0  0  0  0  0  0  0  0  0  0  0  0
   -3.4871  -21.3451   28.6153 H   0  0  0  0  0  0  0  0  0  0  0  0
   -2.0338  -20.5994   29.2681 H   0  0  0  0  0  0  0  0  0  0  0  0
    1.2465  -18.6695   27.3523 H   0  0  0  0  0  0  0  0  0  0  0  0
    1.4854  -15.7013   28.0745 H   0  0  0  0  0  0  0  0  0  0  0  0
    0.7389  -14.8728   26.7654 H   0  0  0  0  0  0  0  0  0  0  0  0
    3.2027  -16.6631   26.7044 H   0  0  0  0  0  0  0  0  0  0  0  0
    2.3407  -16.3967   25.2107 H   0  0  0  0  0  0  0  0  0  0  0  0
    3.1897  -13.8410   26.3759 H   0  0  0  0  0  0  0  0  0  0  0  0
    6.4238  -13.3616   26.8303 H   0  0  0  0  0  0  0  0  0  0  0  0
    7.9172  -11.3625   26.3828 H   0  0  0  0  0  0  0  0  0  0  0  0
    8.4890   -9.4214   24.6149 H   0  0  0  0  0  0  0  0  0  0  0  0
    7.2831   -8.7011   22.2196 H   0  0  0  0  0  0  0  0  0  0  0  0
   -1.6009  -15.5169   26.9115 H   0  0  0  0  0  0  0  0  0  0  0  0
  1  2  1  0
  2  3  1  0
  3  4  2  0
  4  5  1  0
  5  6  2  0
  6  7  1  0
  7  8  1  0
  8  9  1  0
  9 10  1  0
 10 11  2  0
 10 12  1  0
 12 13  1  0
 13 14  2  0
 14 15  1  0
 15 16  1  0
 16 17  2  0
 17 18  1  0
 18 19  2  0
 19 20  1  0
  6 21  1  0
 21 22  2  0
 22  3  1  0
 20 12  2  0
 19 15  1  0
  1 23  1  0
  1 24  1  0
  1 25  1  0
  5 26  1  0
  7 27  1  0
  7 28  1  0
  8 29  1  0
  8 30  1  0
  9 31  1  0
 13 32  1  0
 14 33  1  0
 16 34  1  0
 17 35  1  0
 21 36  1  0
M  END
>  <Energy>  (1203) 
61.891017631586571

>  <compound_id>  (1203) 
81080

>  <target_id>  (1203) 
1

>  <reference_id>  (1203) 
54

>  <inspiration_ids>  (1203) 
[54, 106]

>  <energy_score>  (1203) 
12.130109561291817

>  <distance_score>  (1203) 
13.673501061220486

>  <path>  (1203) 
/opt/xchem-fragalysis-2/maxwin/BulkDock/SCRATCH/511024/C81080-P54/C81080-P54.minimised.mol

>  <scratch_subdir>  (1203) 
/opt/xchem-fragalysis-2/maxwin/BulkDock/SCRATCH/511024/C81080-P54

>  <fragmenstein_runtime>  (1203) 
20.623120546340942

>  <fragmenstein_outcome>  (1203) 
too moved

>  <fragmenstein_mode>  (1203) 
expansion

>  <fragmenstein_error>  (1203) 


$$$$
C81080-P106
     RDKit          3D

 36 38  0  0  0  0  0  0  0  0999 V2000
   -3.2646  -20.4948   25.6216 C   0  0  0  0  0  0  0  0  0  0  0  0
   -3.2740  -20.6151   24.2005 O   0  0  0  0  0  0  0  0  0  0  0  0
   -2.2058  -19.9871   23.5636 C   0  0  0  0  0  0  0  0  0  0  0  0
   -2.0892  -20.2066   22.2404 N   0  0  0  0  0  0  0  0  0  0  0  0
   -1.0527  -19.5844   21.5722 C   0  0  0  0  0  0  0  0  0  0  0  0
   -0.1001  -18.7702   22.1546 C   0  0  0  0  0  0  0  0  0  0  0  0
    1.0462  -17.9398   21.4918 C   0  0  0  0  0  0  0  0  0  0  0  0
    1.7557  -18.1027   20.0282 C   0  0  0  0  0  0  0  0  0  0  0  0
    2.9425  -17.1676   19.6243 N   0  0  0  0  0  0  0  0  0  0  0  0
    3.9696  -17.3004   18.5415 C   0  0  0  0  0  0  0  0  0  0  0  0
    4.1791  -18.2003   17.7691 O   0  0  0  0  0  0  0  0  0  0  0  0
    5.0869  -16.0756   18.3621 C   0  0  0  0  0  0  0  0  0  0  0  0
    6.4955  -16.3995   18.8382 C   0  0  0  0  0  0  0  0  0  0  0  0
    7.4377  -15.4417   18.7260 C   0  0  0  0  0  0  0  0  0  0  0  0
    7.1068  -14.2111   18.1837 N   0  0  0  0  0  0  0  0  0  0  0  0
    7.8809  -13.0921   17.9772 C   0  0  0  0  0  0  0  0  0  0  0  0
    7.0318  -12.1639   17.4287 C   0  0  0  0  0  0  0  0  0  0  0  0
    5.7630  -12.6786   17.3247 N   0  0  0  0  0  0  0  0  0  0  0  0
    5.8163  -13.9368   17.7449 C   0  0  0  0  0  0  0  0  0  0  0  0
    4.8069  -14.8958   17.8292 N   0  0  0  0  0  0  0  0  0  0  0  0
   -0.3508  -18.6368   23.5283 C   0  0  0  0  0  0  0  0  0  0  0  0
   -1.3678  -19.2044   24.2533 N   0  0  0  0  0  0  0  0  0  0  0  0
   -4.0673  -21.1205   26.0205 H   0  0  0  0  0  0  0  0  0  0  0  0
   -2.3212  -20.8569   26.0444 H   0  0  0  0  0  0  0  0  0  0  0  0
   -3.4549  -19.4594   25.9224 H   0  0  0  0  0  0  0  0  0  0  0  0
   -1.0459  -19.7758   20.5017 H   0  0  0  0  0  0  0  0  0  0  0  0
    0.7064  -16.8962   21.5241 H   0  0  0  0  0  0  0  0  0  0  0  0
    1.8875  -17.9966   22.1975 H   0  0  0  0  0  0  0  0  0  0  0  0
    2.1315  -19.1260   19.9237 H   0  0  0  0  0  0  0  0  0  0  0  0
    0.9938  -17.9525   19.2558 H   0  0  0  0  0  0  0  0  0  0  0  0
    3.0015  -16.2316   20.0285 H   0  0  0  0  0  0  0  0  0  0  0  0
    6.6770  -17.3878   19.2383 H   0  0  0  0  0  0  0  0  0  0  0  0
    8.4633  -15.5904   19.0372 H   0  0  0  0  0  0  0  0  0  0  0  0
    8.9334  -13.0673   18.2165 H   0  0  0  0  0  0  0  0  0  0  0  0
    7.2587  -11.1585   17.1012 H   0  0  0  0  0  0  0  0  0  0  0  0
    0.2992  -18.0039   24.1324 H   0  0  0  0  0  0  0  0  0  0  0  0
  1  2  1  0
  2  3  1  0
  3  4  2  0
  4  5  1  0
  5  6  2  0
  6  7  1  0
  7  8  1  0
  8  9  1  0
  9 10  1  0
 10 11  2  0
 10 12  1  0
 12 13  1  0
 13 14  2  0
 14 15  1  0
 15 16  1  0
 16 17  2  0
 17 18  1  0
 18 19  2  0
 19 20  1  0
  6 21  1  0
 21 22  2  0
 22  3  1  0
 20 12  2  0
 19 15  1  0
  1 23  1  0
  1 24  1  0
  1 25  1  0
  5 26  1  0
  7 27  1  0
  7 28  1  0
  8 29  1  0
  8 30  1  0
  9 31  1  0
 13 32  1  0
 14 33  1  0
 16 34  1  0
 17 35  1  0
 21 36  1  0
M  END
>  <Energy>  (1204) 
66.946006786104036

>  <compound_id>  (1204) 
81080

>  <target_id>  (1204) 
1

>  <reference_id>  (1204) 
106

>  <inspiration_ids>  (1204) 
[54, 106]

>  <energy_score>  (1204) 
17.185098715810568

>  <distance_score>  (1204) 
14.271382008286645

>  <path>  (1204) 
/opt/xchem-fragalysis-2/maxwin/BulkDock/SCRATCH/511024/C81080-P106/C81080-P106.minimised.mol

>  <scratch_subdir>  (1204) 
/opt/xchem-fragalysis-2/maxwin/BulkDock/SCRATCH/511024/C81080-P106

>  <fragmenstein_runtime>  (1204) 
30.616143226623535

>  <fragmenstein_outcome>  (1204) 
too moved

>  <fragmenstein_mode>  (1204) 
expansion

>  <fragmenstein_error>  (1204) 


$$$$
C81075-P54
     RDKit          3D

 30 32  0  0  0  0  0  0  0  0999 V2000
   -4.7812  -16.5896   26.9708 C   0  0  0  0  0  0  0  0  0  0  0  0
   -3.7050  -15.4490   26.1959 O   0  0  0  0  0  0  0  0  0  0  0  0
   -3.4551  -14.1891   26.6233 C   0  0  0  0  0  0  0  0  0  0  0  0
   -4.2285  -14.1002   28.1128 C   0  0  0  0  0  0  0  0  0  0  0  0
   -4.0565  -13.1197   29.0296 N   0  0  0  0  0  0  0  0  0  0  0  0
   -3.1590  -12.1924   28.6125 C   0  0  0  0  0  0  0  0  0  0  0  0
   -2.3356  -12.1458   27.4298 N   0  0  0  0  0  0  0  0  0  0  0  0
   -2.2168  -12.9735   26.2034 C   0  0  0  0  0  0  0  0  0  0  0  0
   -0.4812  -12.8960   26.1271 N   0  0  0  0  0  0  0  0  0  0  0  0
    0.8196  -12.0762   24.7140 C   0  0  0  0  0  0  0  0  0  0  0  0
    0.3527  -11.4426   23.7694 O   0  0  0  0  0  0  0  0  0  0  0  0
    2.8689  -11.9484   24.6319 C   0  0  0  0  0  0  0  0  0  0  0  0
    3.7541  -12.3101   23.1013 C   0  0  0  0  0  0  0  0  0  0  0  0
    5.0361  -12.0250   22.8101 C   0  0  0  0  0  0  0  0  0  0  0  0
    5.7301  -11.2448   23.6789 N   0  0  0  0  0  0  0  0  0  0  0  0
    6.9441  -10.6241   23.5287 C   0  0  0  0  0  0  0  0  0  0  0  0
    7.0258   -9.7685   24.5964 C   0  0  0  0  0  0  0  0  0  0  0  0
    5.9068   -9.8829   25.3898 N   0  0  0  0  0  0  0  0  0  0  0  0
    5.1248  -10.7988   24.8321 C   0  0  0  0  0  0  0  0  0  0  0  0
    3.8085  -11.1225   25.1642 N   0  0  0  0  0  0  0  0  0  0  0  0
   -4.8890  -16.4624   28.0493 H   0  0  0  0  0  0  0  0  0  0  0  0
   -5.7639  -16.5985   26.5113 H   0  0  0  0  0  0  0  0  0  0  0  0
   -4.2848  -17.5624   26.8263 H   0  0  0  0  0  0  0  0  0  0  0  0
   -5.0400  -14.7476   28.3968 H   0  0  0  0  0  0  0  0  0  0  0  0
   -2.9867  -11.3542   29.2848 H   0  0  0  0  0  0  0  0  0  0  0  0
    0.0684  -13.3184   26.8923 H   0  0  0  0  0  0  0  0  0  0  0  0
    3.2039  -12.4778   22.1794 H   0  0  0  0  0  0  0  0  0  0  0  0
    5.4707  -12.1973   21.8335 H   0  0  0  0  0  0  0  0  0  0  0  0
    7.5963  -10.8147   22.6896 H   0  0  0  0  0  0  0  0  0  0  0  0
    7.8202   -9.0769   24.8451 H   0  0  0  0  0  0  0  0  0  0  0  0
  1  2  1  0
  2  3  1  0
  3  4  2  0
  4  5  1  0
  5  6  2  0
  6  7  1  0
  7  8  2  0
  8  9  1  0
  9 10  1  0
 10 11  2  0
 10 12  1  0
 12 13  1  0
 13 14  2  0
 14 15  1  0
 15 16  1  0
 16 17  2  0
 17 18  1  0
 18 19  2  0
 19 20  1  0
  8  3  1  0
 20 12  2  0
 19 15  1  0
  1 21  1  0
  1 22  1  0
  1 23  1  0
  4 24  1  0
  6 25  1  0
  9 26  1  0
 13 27  1  0
 14 28  1  0
 16 29  1  0
 17 30  1  0
M  END
>  <Energy>  (1205) 
639.37564172582847

>  <compound_id>  (1205) 
81075

>  <target_id>  (1205) 
1

>  <reference_id>  (1205) 
54

>  <inspiration_ids>  (1205) 
[54, 106]

>  <energy_score>  (1205) 
567.5951495953417

>  <distance_score>  (1205) 
14.76428935215304

>  <path>  (1205) 
/opt/xchem-fragalysis-2/maxwin/BulkDock/SCRATCH/511024/C81075-P54/C81075-P54.minimised.mol

>  <scratch_subdir>  (1205) 
/opt/xchem-fragalysis-2/maxwin/BulkDock/SCRATCH/511024/C81075-P54

>  <fragmenstein_runtime>  (1205) 
7.202366828918457

>  <fragmenstein_outcome>  (1205) 
too moved

>  <fragmenstein_mode>  (1205) 
expansion

>  <fragmenstein_error>  (1205) 


$$$$
C81075-P106
     RDKit          3D

 30 32  0  0  0  0  0  0  0  0999 V2000
   -4.0023  -16.6775   21.8223 C   0  0  0  0  0  0  0  0  0  0  0  0
   -3.4695  -15.5577   23.2263 O   0  0  0  0  0  0  0  0  0  0  0  0
   -2.3079  -15.6872   24.3716 C   0  0  0  0  0  0  0  0  0  0  0  0
   -2.6694  -16.7889   25.6750 C   0  0  0  0  0  0  0  0  0  0  0  0
   -2.3815  -16.6020   27.0704 N   0  0  0  0  0  0  0  0  0  0  0  0
   -2.0134  -15.2552   27.0556 C   0  0  0  0  0  0  0  0  0  0  0  0
   -1.7092  -14.3793   25.6288 N   0  0  0  0  0  0  0  0  0  0  0  0
   -1.0348  -14.9298   24.3621 C   0  0  0  0  0  0  0  0  0  0  0  0
    0.4487  -13.9155   23.6265 N   0  0  0  0  0  0  0  0  0  0  0  0
    2.3613  -14.3309   23.3073 C   0  0  0  0  0  0  0  0  0  0  0  0
    2.7919  -15.4061   23.4790 O   0  0  0  0  0  0  0  0  0  0  0  0
    3.7728  -13.2020   22.8857 C   0  0  0  0  0  0  0  0  0  0  0  0
    4.3773  -11.8648   22.4062 C   0  0  0  0  0  0  0  0  0  0  0  0
    5.6533  -11.5465   22.1144 C   0  0  0  0  0  0  0  0  0  0  0  0
    6.5711  -12.5187   22.2216 N   0  0  0  0  0  0  0  0  0  0  0  0
    7.9040  -12.5097   21.9355 C   0  0  0  0  0  0  0  0  0  0  0  0
    8.3099  -13.7744   22.2659 C   0  0  0  0  0  0  0  0  0  0  0  0
    7.2534  -14.5115   22.7627 N   0  0  0  0  0  0  0  0  0  0  0  0
    6.1852  -13.7310   22.7402 C   0  0  0  0  0  0  0  0  0  0  0  0
    4.8633  -14.0059   23.0935 N   0  0  0  0  0  0  0  0  0  0  0  0
   -3.3256  -16.8710   20.9652 H   0  0  0  0  0  0  0  0  0  0  0  0
   -4.6142  -16.0058   21.4250 H   0  0  0  0  0  0  0  0  0  0  0  0
   -4.7948  -17.4353   21.9876 H   0  0  0  0  0  0  0  0  0  0  0  0
   -2.6263  -17.8738   25.5483 H   0  0  0  0  0  0  0  0  0  0  0  0
   -1.8144  -14.8149   28.0147 H   0  0  0  0  0  0  0  0  0  0  0  0
    0.2853  -12.9361   23.5070 H   0  0  0  0  0  0  0  0  0  0  0  0
    3.7785  -10.9506   22.4873 H   0  0  0  0  0  0  0  0  0  0  0  0
    6.0054  -10.5571   21.8566 H   0  0  0  0  0  0  0  0  0  0  0  0
    8.4210  -11.6539   21.5284 H   0  0  0  0  0  0  0  0  0  0  0  0
    9.2994  -14.2057   22.1852 H   0  0  0  0  0  0  0  0  0  0  0  0
  1  2  1  0
  2  3  1  0
  3  4  2  0
  4  5  1  0
  5  6  2  0
  6  7  1  0
  7  8  2  0
  8  9  1  0
  9 10  1  0
 10 11  2  0
 10 12  1  0
 12 13  1  0
 13 14  2  0
 14 15  1  0
 15 16  1  0
 16 17  2  0
 17 18  1  0
 18 19  2  0
 19 20  1  0
  8  3  1  0
 20 12  2  0
 19 15  1  0
  1 21  1  0
  1 22  1  0
  1 23  1  0
  4 24  1  0
  6 25  1  0
  9 26  1  0
 13 27  1  0
 14 28  1  0
 16 29  1  0
 17 30  1  0
M  END
>  <Energy>  (1206) 
737.37773390776397

>  <compound_id>  (1206) 
81075

>  <target_id>  (1206) 
1

>  <reference_id>  (1206) 
106

>  <inspiration_ids>  (1206) 
[54, 106]

>  <energy_score>  (1206) 
665.5972417772883

>  <distance_score>  (1206) 
14.563330998917694

>  <path>  (1206) 
/opt/xchem-fragalysis-2/maxwin/BulkDock/SCRATCH/511024/C81075-P106/C81075-P106.minimised.mol

>  <scratch_subdir>  (1206) 
/opt/xchem-fragalysis-2/maxwin/BulkDock/SCRATCH/511024/C81075-P106

>  <fragmenstein_runtime>  (1206) 
19.32205033302307

>  <fragmenstein_outcome>  (1206) 
too moved

>  <fragmenstein_mode>  (1206) 
expansion

>  <fragmenstein_error>  (1206) 


$$$$
C81085-P54
     RDKit          3D

 34 36  0  0  0  0  0  0  0  0999 V2000
   -6.8503  -16.0922   27.7265 C   0  0  0  0  0  0  0  0  0  0  0  0
   -5.9118  -16.9605   27.1067 N   0  0  0  0  0  0  0  0  0  0  0  0
   -6.1092  -18.2171   26.3784 C   0  0  0  0  0  0  0  0  0  0  0  0
   -4.6198  -16.5302   26.9609 C   0  0  0  0  0  0  0  0  0  0  0  0
   -3.7863  -17.6370   26.8047 N   0  0  0  0  0  0  0  0  0  0  0  0
   -2.6568  -17.3306   26.1240 C   0  0  0  0  0  0  0  0  0  0  0  0
   -2.2924  -15.8982   25.6953 C   0  0  0  0  0  0  0  0  0  0  0  0
   -3.0449  -14.5795   26.0277 C   0  0  0  0  0  0  0  0  0  0  0  0
   -1.9433  -13.4513   25.5119 N   0  0  0  0  0  0  0  0  0  0  0  0
   -1.8093  -12.5083   23.9013 C   0  0  0  0  0  0  0  0  0  0  0  0
   -2.6468  -12.5886   23.1525 O   0  0  0  0  0  0  0  0  0  0  0  0
    0.1488  -11.4920   23.5136 C   0  0  0  0  0  0  0  0  0  0  0  0
    1.2008  -11.2275   21.8792 C   0  0  0  0  0  0  0  0  0  0  0  0
    2.4912  -11.5502   21.4556 C   0  0  0  0  0  0  0  0  0  0  0  0
    3.4394  -11.9369   22.4117 N   0  0  0  0  0  0  0  0  0  0  0  0
    4.7988  -12.1044   22.3282 C   0  0  0  0  0  0  0  0  0  0  0  0
    5.2273  -12.1482   23.6331 C   0  0  0  0  0  0  0  0  0  0  0  0
    4.1773  -12.0372   24.5334 N   0  0  0  0  0  0  0  0  0  0  0  0
    3.0534  -11.8911   23.8371 C   0  0  0  0  0  0  0  0  0  0  0  0
    1.4237  -11.7109   24.3090 N   0  0  0  0  0  0  0  0  0  0  0  0
   -4.0987  -14.9482   26.8324 N   0  0  0  0  0  0  0  0  0  0  0  0
   -7.8330  -16.2384   27.2884 H   0  0  0  0  0  0  0  0  0  0  0  0
   -6.6741  -15.0177   27.6489 H   0  0  0  0  0  0  0  0  0  0  0  0
   -6.7817  -16.2140   28.8010 H   0  0  0  0  0  0  0  0  0  0  0  0
   -5.3103  -18.9718   26.4465 H   0  0  0  0  0  0  0  0  0  0  0  0
   -6.9230  -18.8175   26.7569 H   0  0  0  0  0  0  0  0  0  0  0  0
   -6.2026  -18.0458   25.3104 H   0  0  0  0  0  0  0  0  0  0  0  0
   -2.0647  -18.2126   26.0090 H   0  0  0  0  0  0  0  0  0  0  0  0
   -1.3206  -15.8546   25.2359 H   0  0  0  0  0  0  0  0  0  0  0  0
   -1.1618  -13.2034   26.1082 H   0  0  0  0  0  0  0  0  0  0  0  0
    0.8141  -10.5365   21.1340 H   0  0  0  0  0  0  0  0  0  0  0  0
    2.8773  -11.2924   20.4759 H   0  0  0  0  0  0  0  0  0  0  0  0
    5.3198  -12.1406   21.3838 H   0  0  0  0  0  0  0  0  0  0  0  0
    6.2419  -12.2623   23.9937 H   0  0  0  0  0  0  0  0  0  0  0  0
  1  2  1  0
  2  3  1  0
  2  4  1  0
  4  5  2  0
  5  6  1  0
  6  7  2  0
  7  8  1  0
  8  9  1  0
  9 10  1  0
 10 11  2  0
 10 12  1  0
 12 13  1  0
 13 14  2  0
 14 15  1  0
 15 16  1  0
 16 17  2  0
 17 18  1  0
 18 19  2  0
 19 20  1  0
  8 21  2  0
 21  4  1  0
 20 12  2  0
 19 15  1  0
  1 22  1  0
  1 23  1  0
  1 24  1  0
  3 25  1  0
  3 26  1  0
  3 27  1  0
  6 28  1  0
  7 29  1  0
  9 30  1  0
 13 31  1  0
 14 32  1  0
 16 33  1  0
 17 34  1  0
M  END
>  <Energy>  (1207) 
520.90855021105006

>  <compound_id>  (1207) 
81085

>  <target_id>  (1207) 
1

>  <reference_id>  (1207) 
54

>  <inspiration_ids>  (1207) 
[54, 106]

>  <energy_score>  (1207) 
532.7435979386115

>  <distance_score>  (1207) 
13.896532918858501

>  <path>  (1207) 
/opt/xchem-fragalysis-2/maxwin/BulkDock/SCRATCH/511024/C81085-P54/C81085-P54.minimised.mol

>  <scratch_subdir>  (1207) 
/opt/xchem-fragalysis-2/maxwin/BulkDock/SCRATCH/511024/C81085-P54

>  <fragmenstein_runtime>  (1207) 
14.012391328811646

>  <fragmenstein_outcome>  (1207) 
too moved

>  <fragmenstein_mode>  (1207) 
expansion

>  <fragmenstein_error>  (1207) 


$$$$
C81085-P106
     RDKit          3D

 34 36  0  0  0  0  0  0  0  0999 V2000
   -1.8347  -16.9965   28.3326 C   0  0  0  0  0  0  0  0  0  0  0  0
   -1.0861  -15.7453   28.7206 N   0  0  0  0  0  0  0  0  0  0  0  0
   -1.7050  -15.3501   30.0169 C   0  0  0  0  0  0  0  0  0  0  0  0
   -1.0286  -14.6956   27.5536 C   0  0  0  0  0  0  0  0  0  0  0  0
   -2.0529  -14.9069   26.6803 N   0  0  0  0  0  0  0  0  0  0  0  0
   -1.8322  -14.7035   25.2301 C   0  0  0  0  0  0  0  0  0  0  0  0
   -0.4900  -14.2527   24.4657 C   0  0  0  0  0  0  0  0  0  0  0  0
    0.9070  -13.7024   25.3855 C   0  0  0  0  0  0  0  0  0  0  0  0
    2.1185  -12.8757   24.3087 N   0  0  0  0  0  0  0  0  0  0  0  0
    3.5219  -13.4615   23.5668 C   0  0  0  0  0  0  0  0  0  0  0  0
    4.0286  -14.5571   23.6935 O   0  0  0  0  0  0  0  0  0  0  0  0
    4.5596  -12.4186   22.4380 C   0  0  0  0  0  0  0  0  0  0  0  0
    4.6572  -10.8337   22.2296 C   0  0  0  0  0  0  0  0  0  0  0  0
    5.6690  -10.2470   21.5764 C   0  0  0  0  0  0  0  0  0  0  0  0
    6.5881  -11.0497   20.9681 N   0  0  0  0  0  0  0  0  0  0  0  0
    7.6510  -10.6987   20.1783 C   0  0  0  0  0  0  0  0  0  0  0  0
    8.1444  -11.8913   19.7204 C   0  0  0  0  0  0  0  0  0  0  0  0
    7.4180  -12.9436   20.2337 N   0  0  0  0  0  0  0  0  0  0  0  0
    6.4730  -12.4369   21.0115 C   0  0  0  0  0  0  0  0  0  0  0  0
    5.5014  -13.0917   21.7722 N   0  0  0  0  0  0  0  0  0  0  0  0
    0.3451  -13.6814   26.7997 N   0  0  0  0  0  0  0  0  0  0  0  0
   -1.4339  -17.5020   27.4532 H   0  0  0  0  0  0  0  0  0  0  0  0
   -1.7156  -17.7401   29.1318 H   0  0  0  0  0  0  0  0  0  0  0  0
   -2.9067  -16.8210   28.2128 H   0  0  0  0  0  0  0  0  0  0  0  0
   -0.9415  -14.9766   30.7060 H   0  0  0  0  0  0  0  0  0  0  0  0
   -2.1174  -16.2172   30.5504 H   0  0  0  0  0  0  0  0  0  0  0  0
   -2.5288  -14.6439   29.9183 H   0  0  0  0  0  0  0  0  0  0  0  0
   -2.5507  -15.2791   24.6361 H   0  0  0  0  0  0  0  0  0  0  0  0
   -0.3999  -14.1516   23.3965 H   0  0  0  0  0  0  0  0  0  0  0  0
    1.9035  -11.9638   23.9458 H   0  0  0  0  0  0  0  0  0  0  0  0
    3.8489  -10.1738   22.5027 H   0  0  0  0  0  0  0  0  0  0  0  0
    5.7332   -9.1788   21.4124 H   0  0  0  0  0  0  0  0  0  0  0  0
    7.9389   -9.6737   20.0014 H   0  0  0  0  0  0  0  0  0  0  0  0
    8.9791  -12.0618   19.0521 H   0  0  0  0  0  0  0  0  0  0  0  0
  1  2  1  0
  2  3  1  0
  2  4  1  0
  4  5  2  0
  5  6  1  0
  6  7  2  0
  7  8  1  0
  8  9  1  0
  9 10  1  0
 10 11  2  0
 10 12  1  0
 12 13  1  0
 13 14  2  0
 14 15  1  0
 15 16  1  0
 16 17  2  0
 17 18  1  0
 18 19  2  0
 19 20  1  0
  8 21  2  0
 21  4  1  0
 20 12  2  0
 19 15  1  0
  1 22  1  0
  1 23  1  0
  1 24  1  0
  3 25  1  0
  3 26  1  0
  3 27  1  0
  6 28  1  0
  7 29  1  0
  9 30  1  0
 13 31  1  0
 14 32  1  0
 16 33  1  0
 17 34  1  0
M  END
>  <Energy>  (1208) 
349.90669307189495

>  <compound_id>  (1208) 
81085

>  <target_id>  (1208) 
1

>  <reference_id>  (1208) 
106

>  <inspiration_ids>  (1208) 
[54, 106]

>  <energy_score>  (1208) 
361.7417407994659

>  <distance_score>  (1208) 
13.72791796189589

>  <path>  (1208) 
/opt/xchem-fragalysis-2/maxwin/BulkDock/SCRATCH/511024/C81085-P106/C81085-P106.minimised.mol

>  <scratch_subdir>  (1208) 
/opt/xchem-fragalysis-2/maxwin/BulkDock/SCRATCH/511024/C81085-P106

>  <fragmenstein_runtime>  (1208) 
18.549699068069458

>  <fragmenstein_outcome>  (1208) 
too moved

>  <fragmenstein_mode>  (1208) 
expansion

>  <fragmenstein_error>  (1208) 


$$$$
C81086-P54
     RDKit          3D

 32 34  0  0  0  0  0  0  0  0999 V2000
   -1.6655  -12.9980   13.9986 C   0  0  0  0  0  0  0  0  0  0  0  0
   -1.6309  -11.8793   14.8872 O   0  0  0  0  0  0  0  0  0  0  0  0
   -2.7449  -11.7475   15.6556 C   0  0  0  0  0  0  0  0  0  0  0  0
   -3.7123  -12.4921   15.6235 O   0  0  0  0  0  0  0  0  0  0  0  0
   -2.6119  -10.5670   16.5715 C   0  0  0  0  0  0  0  0  0  0  0  0
   -1.4994   -9.7377   16.5365 C   0  0  0  0  0  0  0  0  0  0  0  0
   -1.4230   -8.7176   17.4646 C   0  0  0  0  0  0  0  0  0  0  0  0
   -0.3048   -7.8436   17.5086 N   0  0  0  0  0  0  0  0  0  0  0  0
    0.8924   -7.7875   16.6895 C   0  0  0  0  0  0  0  0  0  0  0  0
    1.2055   -8.4168   15.7154 O   0  0  0  0  0  0  0  0  0  0  0  0
    1.9250   -6.6516   17.0491 C   0  0  0  0  0  0  0  0  0  0  0  0
    2.4775   -5.9083   15.8428 C   0  0  0  0  0  0  0  0  0  0  0  0
    3.3737   -4.9385   16.0783 C   0  0  0  0  0  0  0  0  0  0  0  0
    3.7592   -4.6885   17.3802 N   0  0  0  0  0  0  0  0  0  0  0  0
    4.5976   -3.7292   17.8801 C   0  0  0  0  0  0  0  0  0  0  0  0
    4.6947   -4.0005   19.2208 C   0  0  0  0  0  0  0  0  0  0  0  0
    3.8805   -5.0536   19.5617 N   0  0  0  0  0  0  0  0  0  0  0  0
    3.2739   -5.4376   18.4520 C   0  0  0  0  0  0  0  0  0  0  0  0
    2.3091   -6.4108   18.2768 N   0  0  0  0  0  0  0  0  0  0  0  0
   -2.4405   -8.5234   18.3372 N   0  0  0  0  0  0  0  0  0  0  0  0
   -3.5213   -9.3328   18.2245 C   0  0  0  0  0  0  0  0  0  0  0  0
   -3.6366  -10.3948   17.4317 N   0  0  0  0  0  0  0  0  0  0  0  0
   -0.7299  -13.0094   13.4328 H   0  0  0  0  0  0  0  0  0  0  0  0
   -2.4964  -12.9014   13.2929 H   0  0  0  0  0  0  0  0  0  0  0  0
   -1.7406  -13.9328   14.5629 H   0  0  0  0  0  0  0  0  0  0  0  0
   -0.7033   -9.9048   15.8225 H   0  0  0  0  0  0  0  0  0  0  0  0
   -0.1919   -7.2222   18.3040 H   0  0  0  0  0  0  0  0  0  0  0  0
    2.1277   -6.1795   14.8547 H   0  0  0  0  0  0  0  0  0  0  0  0
    3.8122   -4.3363   15.2951 H   0  0  0  0  0  0  0  0  0  0  0  0
    5.0560   -2.9782   17.2592 H   0  0  0  0  0  0  0  0  0  0  0  0
    5.2931   -3.4858   19.9634 H   0  0  0  0  0  0  0  0  0  0  0  0
   -4.3824   -9.0923   18.8414 H   0  0  0  0  0  0  0  0  0  0  0  0
  1  2  1  0
  2  3  1  0
  3  4  2  0
  3  5  1  0
  5  6  2  0
  6  7  1  0
  7  8  1  0
  8  9  1  0
  9 10  2  0
  9 11  1  0
 11 12  1  0
 12 13  2  0
 13 14  1  0
 14 15  1  0
 15 16  2  0
 16 17  1  0
 17 18  2  0
 18 19  1  0
  7 20  2  0
 20 21  1  0
 21 22  2  0
 22  5  1  0
 19 11  2  0
 18 14  1  0
  1 23  1  0
  1 24  1  0
  1 25  1  0
  6 26  1  0
  8 27  1  0
 12 28  1  0
 13 29  1  0
 15 30  1  0
 16 31  1  0
 21 32  1  0
M  END
>  <Energy>  (1209) 
22.314936163367395

>  <compound_id>  (1209) 
81086

>  <target_id>  (1209) 
1

>  <reference_id>  (1209) 
54

>  <inspiration_ids>  (1209) 
[54, 106]

>  <energy_score>  (1209) 
-46.47900040807747

>  <distance_score>  (1209) 
15.831314283904623

>  <path>  (1209) 
/opt/xchem-fragalysis-2/maxwin/BulkDock/SCRATCH/511024/C81086-P54/C81086-P54.minimised.mol

>  <scratch_subdir>  (1209) 
/opt/xchem-fragalysis-2/maxwin/BulkDock/SCRATCH/511024/C81086-P54

>  <fragmenstein_runtime>  (1209) 
13.407552719116211

>  <fragmenstein_outcome>  (1209) 
too moved

>  <fragmenstein_mode>  (1209) 
expansion

>  <fragmenstein_error>  (1209) 


$$$$
C81086-P106
     RDKit          3D

 32 34  0  0  0  0  0  0  0  0999 V2000
    2.3522  -21.7090   26.1631 C   0  0  0  0  0  0  0  0  0  0  0  0
    2.1056  -20.4109   25.6173 O   0  0  0  0  0  0  0  0  0  0  0  0
    0.8002  -20.0583   25.6262 C   0  0  0  0  0  0  0  0  0  0  0  0
   -0.1478  -20.7143   26.0133 O   0  0  0  0  0  0  0  0  0  0  0  0
    0.6886  -18.7157   25.0300 C   0  0  0  0  0  0  0  0  0  0  0  0
    2.2593  -17.5461   24.7947 C   0  0  0  0  0  0  0  0  0  0  0  0
    1.8847  -15.7027   23.7541 C   0  0  0  0  0  0  0  0  0  0  0  0
    3.1693  -14.6201   23.2846 N   0  0  0  0  0  0  0  0  0  0  0  0
    4.6185  -14.7992   23.2685 C   0  0  0  0  0  0  0  0  0  0  0  0
    5.2974  -15.7113   23.6497 O   0  0  0  0  0  0  0  0  0  0  0  0
    5.4216  -13.4960   22.7053 C   0  0  0  0  0  0  0  0  0  0  0  0
    6.6429  -13.0821   23.5125 C   0  0  0  0  0  0  0  0  0  0  0  0
    7.3750  -12.0490   23.0546 C   0  0  0  0  0  0  0  0  0  0  0  0
    6.9928  -11.4104   21.8872 N   0  0  0  0  0  0  0  0  0  0  0  0
    7.5636  -10.3492   21.2274 C   0  0  0  0  0  0  0  0  0  0  0  0
    6.7542  -10.1298   20.1402 C   0  0  0  0  0  0  0  0  0  0  0  0
    5.7179  -11.0333   20.1152 N   0  0  0  0  0  0  0  0  0  0  0  0
    5.8626  -11.8107   21.1770 C   0  0  0  0  0  0  0  0  0  0  0  0
    5.0673  -12.8667   21.6063 N   0  0  0  0  0  0  0  0  0  0  0  0
    0.3230  -14.7019   24.3470 N   0  0  0  0  0  0  0  0  0  0  0  0
   -1.1717  -15.8923   24.5806 C   0  0  0  0  0  0  0  0  0  0  0  0
   -0.9488  -17.7547   25.3374 N   0  0  0  0  0  0  0  0  0  0  0  0
    1.8465  -22.4760   25.5681 H   0  0  0  0  0  0  0  0  0  0  0  0
    2.0298  -21.7530   27.2082 H   0  0  0  0  0  0  0  0  0  0  0  0
    3.4293  -21.8934   26.1242 H   0  0  0  0  0  0  0  0  0  0  0  0
    3.2690  -18.0226   24.8501 H   0  0  0  0  0  0  0  0  0  0  0  0
    2.9328  -13.7512   22.7984 H   0  0  0  0  0  0  0  0  0  0  0  0
    6.8815  -13.6442   24.4066 H   0  0  0  0  0  0  0  0  0  0  0  0
    8.2663  -11.6900   23.5533 H   0  0  0  0  0  0  0  0  0  0  0  0
    8.4591   -9.8599   21.5809 H   0  0  0  0  0  0  0  0  0  0  0  0
    6.8531   -9.3738   19.3744 H   0  0  0  0  0  0  0  0  0  0  0  0
   -0.5450  -17.1167   25.1963 H   0  0  0  0  0  0  0  0  0  0  0  0
  1  2  1  0
  2  3  1  0
  3  4  2  0
  3  5  1  0
  5  6  2  0
  6  7  1  0
  7  8  1  0
  8  9  1  0
  9 10  2  0
  9 11  1  0
 11 12  1  0
 12 13  2  0
 13 14  1  0
 14 15  1  0
 15 16  2  0
 16 17  1  0
 17 18  2  0
 18 19  1  0
  7 20  2  0
 20 21  1  0
 21 22  2  0
 22  5  1  0
 19 11  2  0
 18 14  1  0
  1 23  1  0
  1 24  1  0
  1 25  1  0
  6 26  1  0
  8 27  1  0
 12 28  1  0
 13 29  1  0
 15 30  1  0
 16 31  1  0
 21 32  1  0
M  END
>  <Energy>  (1210) 
1062.29209205813

>  <compound_id>  (1210) 
81086

>  <target_id>  (1210) 
1

>  <reference_id>  (1210) 
106

>  <inspiration_ids>  (1210) 
[54, 106]

>  <energy_score>  (1210) 
993.4981554866836

>  <distance_score>  (1210) 
14.547458249884608

>  <path>  (1210) 
/opt/xchem-fragalysis-2/maxwin/BulkDock/SCRATCH/511024/C81086-P106/C81086-P106.minimised.mol

>  <scratch_subdir>  (1210) 
/opt/xchem-fragalysis-2/maxwin/BulkDock/SCRATCH/511024/C81086-P106

>  <fragmenstein_runtime>  (1210) 
15.501404523849487

>  <fragmenstein_outcome>  (1210) 
too moved

>  <fragmenstein_mode>  (1210) 
expansion

>  <fragmenstein_error>  (1210) 


$$$$
C81091-P54
     RDKit          3D

 38 40  0  0  0  0  0  0  0  0999 V2000
   -8.3756  -11.3832   22.4630 C   0  0  0  0  0  0  0  0  0  0  0  0
   -8.8948  -11.9438   21.2286 N   0  0  0  0  0  0  0  0  0  0  0  0
  -10.1240  -12.7280   21.3543 C   0  0  0  0  0  0  0  0  0  0  0  0
   -8.5382  -11.3809   19.9815 C   0  0  0  0  0  0  0  0  0  0  0  0
   -9.1142  -11.8795   18.8890 N   0  0  0  0  0  0  0  0  0  0  0  0
   -8.6199  -11.4662   17.6839 C   0  0  0  0  0  0  0  0  0  0  0  0
   -7.5330  -10.6082   17.4535 C   0  0  0  0  0  0  0  0  0  0  0  0
   -6.9192  -10.0945   18.5639 C   0  0  0  0  0  0  0  0  0  0  0  0
   -5.3073   -9.4275   18.4128 C   0  0  0  0  0  0  0  0  0  0  0  0
   -4.7553   -8.1712   17.6138 N   0  0  0  0  0  0  0  0  0  0  0  0
   -5.7242   -7.0767   17.6210 C   0  0  0  0  0  0  0  0  0  0  0  0
   -3.3201   -7.7741   17.5671 C   0  0  0  0  0  0  0  0  0  0  0  0
   -2.2145   -8.8231   17.6553 C   0  0  0  0  0  0  0  0  0  0  0  0
   -0.9277   -8.4479   17.5368 C   0  0  0  0  0  0  0  0  0  0  0  0
   -0.6129   -7.1170   17.3690 N   0  0  0  0  0  0  0  0  0  0  0  0
    0.6100   -6.5008   17.2363 C   0  0  0  0  0  0  0  0  0  0  0  0
    0.3197   -5.1691   17.0827 C   0  0  0  0  0  0  0  0  0  0  0  0
   -1.0422   -4.9621   17.1250 N   0  0  0  0  0  0  0  0  0  0  0  0
   -1.6082   -6.1515   17.2989 C   0  0  0  0  0  0  0  0  0  0  0  0
   -2.9513   -6.5010   17.3914 N   0  0  0  0  0  0  0  0  0  0  0  0
   -7.4861  -10.5146   19.8179 N   0  0  0  0  0  0  0  0  0  0  0  0
   -8.8313  -10.4080   22.6615 H   0  0  0  0  0  0  0  0  0  0  0  0
   -8.5742  -12.0376   23.3184 H   0  0  0  0  0  0  0  0  0  0  0  0
   -7.2961  -11.2644   22.3963 H   0  0  0  0  0  0  0  0  0  0  0  0
  -10.9934  -12.0625   21.3783 H   0  0  0  0  0  0  0  0  0  0  0  0
  -10.2507  -13.4354   20.5278 H   0  0  0  0  0  0  0  0  0  0  0  0
  -10.1190  -13.3187   22.2769 H   0  0  0  0  0  0  0  0  0  0  0  0
   -9.1396  -11.8989   16.8297 H   0  0  0  0  0  0  0  0  0  0  0  0
   -7.1709  -10.4113   16.4532 H   0  0  0  0  0  0  0  0  0  0  0  0
   -4.9616   -9.2088   19.4154 H   0  0  0  0  0  0  0  0  0  0  0  0
   -4.7478  -10.2817   18.0143 H   0  0  0  0  0  0  0  0  0  0  0  0
   -6.7373   -7.4505   17.4437 H   0  0  0  0  0  0  0  0  0  0  0  0
   -5.7102   -6.5526   18.5805 H   0  0  0  0  0  0  0  0  0  0  0  0
   -5.5086   -6.3600   16.8219 H   0  0  0  0  0  0  0  0  0  0  0  0
   -2.5067   -9.8537   17.7837 H   0  0  0  0  0  0  0  0  0  0  0  0
   -0.1001   -9.1418   17.5861 H   0  0  0  0  0  0  0  0  0  0  0  0
    1.5359   -7.0551   17.2696 H   0  0  0  0  0  0  0  0  0  0  0  0
    1.0066   -4.3444   16.9475 H   0  0  0  0  0  0  0  0  0  0  0  0
  1  2  1  0
  2  3  1  0
  2  4  1  0
  4  5  2  0
  5  6  1  0
  6  7  2  0
  7  8  1  0
  8  9  1  0
  9 10  1  0
 10 11  1  0
 10 12  1  0
 12 13  1  0
 13 14  2  0
 14 15  1  0
 15 16  1  0
 16 17  2  0
 17 18  1  0
 18 19  2  0
 19 20  1  0
  8 21  2  0
 21  4  1  0
 20 12  2  0
 19 15  1  0
  1 22  1  0
  1 23  1  0
  1 24  1  0
  3 25  1  0
  3 26  1  0
  3 27  1  0
  6 28  1  0
  7 29  1  0
  9 30  1  0
  9 31  1  0
 11 32  1  0
 11 33  1  0
 11 34  1  0
 13 35  1  0
 14 36  1  0
 16 37  1  0
 17 38  1  0
M  END
>  <Energy>  (1211) 
-8.4096114809054185

>  <compound_id>  (1211) 
81091

>  <target_id>  (1211) 
1

>  <reference_id>  (1211) 
54

>  <inspiration_ids>  (1211) 
[54, 106]

>  <energy_score>  (1211) 
6.043516702203391

>  <distance_score>  (1211) 
16.222132547434512

>  <path>  (1211) 
/opt/xchem-fragalysis-2/maxwin/BulkDock/SCRATCH/511024/C81091-P54/C81091-P54.minimised.mol

>  <scratch_subdir>  (1211) 
/opt/xchem-fragalysis-2/maxwin/BulkDock/SCRATCH/511024/C81091-P54

>  <fragmenstein_runtime>  (1211) 
13.14901876449585

>  <fragmenstein_outcome>  (1211) 
too moved

>  <fragmenstein_mode>  (1211) 
expansion

>  <fragmenstein_error>  (1211) 


$$$$
C81091-P106
     RDKit          3D

 38 40  0  0  0  0  0  0  0  0999 V2000
   -2.6106  -17.1680   27.4261 C   0  0  0  0  0  0  0  0  0  0  0  0
   -2.0855  -15.7146   27.5091 N   0  0  0  0  0  0  0  0  0  0  0  0
   -1.6426  -15.5122   28.8773 C   0  0  0  0  0  0  0  0  0  0  0  0
   -2.1216  -14.8503   26.0860 C   0  0  0  0  0  0  0  0  0  0  0  0
   -2.6444  -15.6741   25.1955 N   0  0  0  0  0  0  0  0  0  0  0  0
   -2.3288  -15.3493   24.0367 C   0  0  0  0  0  0  0  0  0  0  0  0
   -1.1074  -14.7963   23.5398 C   0  0  0  0  0  0  0  0  0  0  0  0
   -0.2409  -14.2059   24.3674 C   0  0  0  0  0  0  0  0  0  0  0  0
    1.5987  -13.3257   24.2728 C   0  0  0  0  0  0  0  0  0  0  0  0
    3.3064  -13.3022   23.5713 N   0  0  0  0  0  0  0  0  0  0  0  0
    4.2603  -14.2827   24.1494 C   0  0  0  0  0  0  0  0  0  0  0  0
    4.1179  -12.3671   22.7231 C   0  0  0  0  0  0  0  0  0  0  0  0
    5.0493  -13.0302   21.6563 C   0  0  0  0  0  0  0  0  0  0  0  0
    5.9663  -12.3022   20.9927 C   0  0  0  0  0  0  0  0  0  0  0  0
    6.0502  -10.9461   21.2299 N   0  0  0  0  0  0  0  0  0  0  0  0
    6.8695   -9.9929   20.6728 C   0  0  0  0  0  0  0  0  0  0  0  0
    6.4923   -8.8142   21.2664 C   0  0  0  0  0  0  0  0  0  0  0  0
    5.4790   -9.0308   22.1698 N   0  0  0  0  0  0  0  0  0  0  0  0
    5.1972  -10.3275   22.1309 C   0  0  0  0  0  0  0  0  0  0  0  0
    4.2529  -11.0638   22.8368 N   0  0  0  0  0  0  0  0  0  0  0  0
   -1.3052  -13.8394   25.4421 N   0  0  0  0  0  0  0  0  0  0  0  0
   -2.7710  -17.5603   26.4217 H   0  0  0  0  0  0  0  0  0  0  0  0
   -3.5375  -17.2605   28.0032 H   0  0  0  0  0  0  0  0  0  0  0  0
   -1.8632  -17.8366   27.8723 H   0  0  0  0  0  0  0  0  0  0  0  0
   -1.8136  -16.4141   29.4843 H   0  0  0  0  0  0  0  0  0  0  0  0
   -2.2336  -14.7791   29.4204 H   0  0  0  0  0  0  0  0  0  0  0  0
   -0.5628  -15.3904   28.9516 H   0  0  0  0  0  0  0  0  0  0  0  0
   -3.1859  -15.3229   23.4212 H   0  0  0  0  0  0  0  0  0  0  0  0
   -0.8762  -14.8286   22.4761 H   0  0  0  0  0  0  0  0  0  0  0  0
    1.7296  -13.2716   25.3714 H   0  0  0  0  0  0  0  0  0  0  0  0
    1.5463  -14.2608   23.6001 H   0  0  0  0  0  0  0  0  0  0  0  0
    5.2974  -13.9256   24.0824 H   0  0  0  0  0  0  0  0  0  0  0  0
    4.1399  -14.4467   25.2186 H   0  0  0  0  0  0  0  0  0  0  0  0
    4.2249  -15.2136   23.5771 H   0  0  0  0  0  0  0  0  0  0  0  0
    4.9056  -14.0887   21.4843 H   0  0  0  0  0  0  0  0  0  0  0  0
    6.6333  -12.7262   20.2544 H   0  0  0  0  0  0  0  0  0  0  0  0
    7.6171  -10.2343   19.9322 H   0  0  0  0  0  0  0  0  0  0  0  0
    6.8921   -7.8221   21.1060 H   0  0  0  0  0  0  0  0  0  0  0  0
  1  2  1  0
  2  3  1  0
  2  4  1  0
  4  5  2  0
  5  6  1  0
  6  7  2  0
  7  8  1  0
  8  9  1  0
  9 10  1  0
 10 11  1  0
 10 12  1  0
 12 13  1  0
 13 14  2  0
 14 15  1  0
 15 16  1  0
 16 17  2  0
 17 18  1  0
 18 19  2  0
 19 20  1  0
  8 21  2  0
 21  4  1  0
 20 12  2  0
 19 15  1  0
  1 22  1  0
  1 23  1  0
  1 24  1  0
  3 25  1  0
  3 26  1  0
  3 27  1  0
  6 28  1  0
  7 29  1  0
  9 30  1  0
  9 31  1  0
 11 32  1  0
 11 33  1  0
 11 34  1  0
 13 35  1  0
 14 36  1  0
 16 37  1  0
 17 38  1  0
M  END
>  <Energy>  (1212) 
336.95061577193002

>  <compound_id>  (1212) 
81091

>  <target_id>  (1212) 
1

>  <reference_id>  (1212) 
106

>  <inspiration_ids>  (1212) 
[54, 106]

>  <energy_score>  (1212) 
351.40374395503454

>  <distance_score>  (1212) 
13.606532959690329

>  <path>  (1212) 
/opt/xchem-fragalysis-2/maxwin/BulkDock/SCRATCH/511024/C81091-P106/C81091-P106.minimised.mol

>  <scratch_subdir>  (1212) 
/opt/xchem-fragalysis-2/maxwin/BulkDock/SCRATCH/511024/C81091-P106

>  <fragmenstein_runtime>  (1212) 
16.27856755256653

>  <fragmenstein_outcome>  (1212) 
too moved

>  <fragmenstein_mode>  (1212) 
expansion

>  <fragmenstein_error>  (1212) 


$$$$
C81085-P54
     RDKit          3D

 34 36  0  0  0  0  0  0  0  0999 V2000
   -6.8503  -16.0922   27.7265 C   0  0  0  0  0  0  0  0  0  0  0  0
   -5.9118  -16.9605   27.1067 N   0  0  0  0  0  0  0  0  0  0  0  0
   -6.1092  -18.2171   26.3784 C   0  0  0  0  0  0  0  0  0  0  0  0
   -4.6198  -16.5302   26.9609 C   0  0  0  0  0  0  0  0  0  0  0  0
   -3.7863  -17.6370   26.8047 N   0  0  0  0  0  0  0  0  0  0  0  0
   -2.6568  -17.3306   26.1240 C   0  0  0  0  0  0  0  0  0  0  0  0
   -2.2924  -15.8982   25.6953 C   0  0  0  0  0  0  0  0  0  0  0  0
   -3.0449  -14.5795   26.0277 C   0  0  0  0  0  0  0  0  0  0  0  0
   -1.9433  -13.4513   25.5119 N   0  0  0  0  0  0  0  0  0  0  0  0
   -1.8093  -12.5083   23.9013 C   0  0  0  0  0  0  0  0  0  0  0  0
   -2.6468  -12.5886   23.1525 O   0  0  0  0  0  0  0  0  0  0  0  0
    0.1488  -11.4920   23.5136 C   0  0  0  0  0  0  0  0  0  0  0  0
    1.2008  -11.2275   21.8792 C   0  0  0  0  0  0  0  0  0  0  0  0
    2.4912  -11.5502   21.4556 C   0  0  0  0  0  0  0  0  0  0  0  0
    3.4394  -11.9369   22.4117 N   0  0  0  0  0  0  0  0  0  0  0  0
    4.7988  -12.1044   22.3282 C   0  0  0  0  0  0  0  0  0  0  0  0
    5.2273  -12.1482   23.6331 C   0  0  0  0  0  0  0  0  0  0  0  0
    4.1773  -12.0372   24.5334 N   0  0  0  0  0  0  0  0  0  0  0  0
    3.0534  -11.8911   23.8371 C   0  0  0  0  0  0  0  0  0  0  0  0
    1.4237  -11.7109   24.3090 N   0  0  0  0  0  0  0  0  0  0  0  0
   -4.0987  -14.9482   26.8324 N   0  0  0  0  0  0  0  0  0  0  0  0
   -7.8330  -16.2384   27.2884 H   0  0  0  0  0  0  0  0  0  0  0  0
   -6.6741  -15.0177   27.6489 H   0  0  0  0  0  0  0  0  0  0  0  0
   -6.7817  -16.2140   28.8010 H   0  0  0  0  0  0  0  0  0  0  0  0
   -5.3103  -18.9718   26.4465 H   0  0  0  0  0  0  0  0  0  0  0  0
   -6.9230  -18.8175   26.7569 H   0  0  0  0  0  0  0  0  0  0  0  0
   -6.2026  -18.0458   25.3104 H   0  0  0  0  0  0  0  0  0  0  0  0
   -2.0647  -18.2126   26.0090 H   0  0  0  0  0  0  0  0  0  0  0  0
   -1.3206  -15.8546   25.2359 H   0  0  0  0  0  0  0  0  0  0  0  0
   -1.1618  -13.2034   26.1082 H   0  0  0  0  0  0  0  0  0  0  0  0
    0.8141  -10.5365   21.1340 H   0  0  0  0  0  0  0  0  0  0  0  0
    2.8773  -11.2924   20.4759 H   0  0  0  0  0  0  0  0  0  0  0  0
    5.3198  -12.1406   21.3838 H   0  0  0  0  0  0  0  0  0  0  0  0
    6.2419  -12.2623   23.9937 H   0  0  0  0  0  0  0  0  0  0  0  0
  1  2  1  0
  2  3  1  0
  2  4  1  0
  4  5  2  0
  5  6  1  0
  6  7  2  0
  7  8  1  0
  8  9  1  0
  9 10  1  0
 10 11  2  0
 10 12  1  0
 12 13  1  0
 13 14  2  0
 14 15  1  0
 15 16  1  0
 16 17  2  0
 17 18  1  0
 18 19  2  0
 19 20  1  0
  8 21  2  0
 21  4  1  0
 20 12  2  0
 19 15  1  0
  1 22  1  0
  1 23  1  0
  1 24  1  0
  3 25  1  0
  3 26  1  0
  3 27  1  0
  6 28  1  0
  7 29  1  0
  9 30  1  0
 13 31  1  0
 14 32  1  0
 16 33  1  0
 17 34  1  0
M  END
>  <Energy>  (1213) 
520.90855021105006

>  <compound_id>  (1213) 
81085

>  <target_id>  (1213) 
1

>  <reference_id>  (1213) 
54

>  <inspiration_ids>  (1213) 
[54, 106]

>  <energy_score>  (1213) 
532.7435979386115

>  <distance_score>  (1213) 
13.896532918858501

>  <path>  (1213) 
/opt/xchem-fragalysis-2/maxwin/BulkDock/SCRATCH/511024/C81085-P54/C81085-P54.minimised.mol

>  <scratch_subdir>  (1213) 
/opt/xchem-fragalysis-2/maxwin/BulkDock/SCRATCH/511024/C81085-P54

>  <fragmenstein_runtime>  (1213) 
12.725791454315186

>  <fragmenstein_outcome>  (1213) 
too moved

>  <fragmenstein_mode>  (1213) 
expansion

>  <fragmenstein_error>  (1213) 


$$$$
C81085-P106
     RDKit          3D

 34 36  0  0  0  0  0  0  0  0999 V2000
   -1.8347  -16.9965   28.3326 C   0  0  0  0  0  0  0  0  0  0  0  0
   -1.0861  -15.7453   28.7206 N   0  0  0  0  0  0  0  0  0  0  0  0
   -1.7050  -15.3501   30.0169 C   0  0  0  0  0  0  0  0  0  0  0  0
   -1.0286  -14.6956   27.5536 C   0  0  0  0  0  0  0  0  0  0  0  0
   -2.0529  -14.9069   26.6803 N   0  0  0  0  0  0  0  0  0  0  0  0
   -1.8322  -14.7035   25.2301 C   0  0  0  0  0  0  0  0  0  0  0  0
   -0.4900  -14.2527   24.4657 C   0  0  0  0  0  0  0  0  0  0  0  0
    0.9070  -13.7024   25.3855 C   0  0  0  0  0  0  0  0  0  0  0  0
    2.1185  -12.8757   24.3087 N   0  0  0  0  0  0  0  0  0  0  0  0
    3.5219  -13.4615   23.5668 C   0  0  0  0  0  0  0  0  0  0  0  0
    4.0286  -14.5571   23.6935 O   0  0  0  0  0  0  0  0  0  0  0  0
    4.5596  -12.4186   22.4380 C   0  0  0  0  0  0  0  0  0  0  0  0
    4.6572  -10.8337   22.2296 C   0  0  0  0  0  0  0  0  0  0  0  0
    5.6690  -10.2470   21.5764 C   0  0  0  0  0  0  0  0  0  0  0  0
    6.5881  -11.0497   20.9681 N   0  0  0  0  0  0  0  0  0  0  0  0
    7.6510  -10.6987   20.1783 C   0  0  0  0  0  0  0  0  0  0  0  0
    8.1444  -11.8913   19.7204 C   0  0  0  0  0  0  0  0  0  0  0  0
    7.4180  -12.9436   20.2337 N   0  0  0  0  0  0  0  0  0  0  0  0
    6.4730  -12.4369   21.0115 C   0  0  0  0  0  0  0  0  0  0  0  0
    5.5014  -13.0917   21.7722 N   0  0  0  0  0  0  0  0  0  0  0  0
    0.3451  -13.6814   26.7997 N   0  0  0  0  0  0  0  0  0  0  0  0
   -1.4339  -17.5020   27.4532 H   0  0  0  0  0  0  0  0  0  0  0  0
   -1.7156  -17.7401   29.1318 H   0  0  0  0  0  0  0  0  0  0  0  0
   -2.9067  -16.8210   28.2128 H   0  0  0  0  0  0  0  0  0  0  0  0
   -0.9415  -14.9766   30.7060 H   0  0  0  0  0  0  0  0  0  0  0  0
   -2.1174  -16.2172   30.5504 H   0  0  0  0  0  0  0  0  0  0  0  0
   -2.5288  -14.6439   29.9183 H   0  0  0  0  0  0  0  0  0  0  0  0
   -2.5507  -15.2791   24.6361 H   0  0  0  0  0  0  0  0  0  0  0  0
   -0.3999  -14.1516   23.3965 H   0  0  0  0  0  0  0  0  0  0  0  0
    1.9035  -11.9638   23.9458 H   0  0  0  0  0  0  0  0  0  0  0  0
    3.8489  -10.1738   22.5027 H   0  0  0  0  0  0  0  0  0  0  0  0
    5.7332   -9.1788   21.4124 H   0  0  0  0  0  0  0  0  0  0  0  0
    7.9389   -9.6737   20.0014 H   0  0  0  0  0  0  0  0  0  0  0  0
    8.9791  -12.0618   19.0521 H   0  0  0  0  0  0  0  0  0  0  0  0
  1  2  1  0
  2  3  1  0
  2  4  1  0
  4  5  2  0
  5  6  1  0
  6  7  2  0
  7  8  1  0
  8  9  1  0
  9 10  1  0
 10 11  2  0
 10 12  1  0
 12 13  1  0
 13 14  2  0
 14 15  1  0
 15 16  1  0
 16 17  2  0
 17 18  1  0
 18 19  2  0
 19 20  1  0
  8 21  2  0
 21  4  1  0
 20 12  2  0
 19 15  1  0
  1 22  1  0
  1 23  1  0
  1 24  1  0
  3 25  1  0
  3 26  1  0
  3 27  1  0
  6 28  1  0
  7 29  1  0
  9 30  1  0
 13 31  1  0
 14 32  1  0
 16 33  1  0
 17 34  1  0
M  END
>  <Energy>  (1214) 
349.90669307189495

>  <compound_id>  (1214) 
81085

>  <target_id>  (1214) 
1

>  <reference_id>  (1214) 
106

>  <inspiration_ids>  (1214) 
[54, 106]

>  <energy_score>  (1214) 
361.7417407994659

>  <distance_score>  (1214) 
13.72791796189589

>  <path>  (1214) 
/opt/xchem-fragalysis-2/maxwin/BulkDock/SCRATCH/511024/C81085-P106/C81085-P106.minimised.mol

>  <scratch_subdir>  (1214) 
/opt/xchem-fragalysis-2/maxwin/BulkDock/SCRATCH/511024/C81085-P106

>  <fragmenstein_runtime>  (1214) 
19.934022903442383

>  <fragmenstein_outcome>  (1214) 
too moved

>  <fragmenstein_mode>  (1214) 
expansion

>  <fragmenstein_error>  (1214) 


$$$$
C81073-P54
     RDKit          3D

 35 37  0  0  0  0  0  0  0  0999 V2000
   -5.5710  -20.2025   26.6467 C   0  0  0  0  0  0  0  0  0  0  0  0
   -6.2596  -18.9660   26.8618 O   0  0  0  0  0  0  0  0  0  0  0  0
   -5.5248  -17.8721   26.3359 C   0  0  0  0  0  0  0  0  0  0  0  0
   -5.4137  -16.3445   26.8788 C   0  0  0  0  0  0  0  0  0  0  0  0
   -6.2623  -15.7144   27.8651 N   0  0  0  0  0  0  0  0  0  0  0  0
   -5.7069  -14.4301   28.4690 C   0  0  0  0  0  0  0  0  0  0  0  0
   -4.2581  -13.7973   28.1167 C   0  0  0  0  0  0  0  0  0  0  0  0
   -3.5104  -14.3193   26.6654 C   0  0  0  0  0  0  0  0  0  0  0  0
   -1.8156  -13.4426   26.2423 C   0  0  0  0  0  0  0  0  0  0  0  0
    0.0040  -13.5365   26.8012 O   0  0  0  0  0  0  0  0  0  0  0  0
    1.0599  -14.6935   26.5623 C   0  0  0  0  0  0  0  0  0  0  0  0
    0.7177  -15.8644   26.7640 O   0  0  0  0  0  0  0  0  0  0  0  0
    2.7022  -14.5608   25.8820 C   0  0  0  0  0  0  0  0  0  0  0  0
    3.3939  -15.8081   25.3714 C   0  0  0  0  0  0  0  0  0  0  0  0
    4.5275  -15.6539   24.6393 C   0  0  0  0  0  0  0  0  0  0  0  0
    5.0599  -14.3906   24.3847 N   0  0  0  0  0  0  0  0  0  0  0  0
    6.1206  -13.9747   23.6105 C   0  0  0  0  0  0  0  0  0  0  0  0
    6.1096  -12.6007   23.6832 C   0  0  0  0  0  0  0  0  0  0  0  0
    5.0848  -12.1740   24.4893 N   0  0  0  0  0  0  0  0  0  0  0  0
    4.4680  -13.2678   24.9186 C   0  0  0  0  0  0  0  0  0  0  0  0
    3.3064  -13.4105   25.6598 N   0  0  0  0  0  0  0  0  0  0  0  0
   -3.9871  -15.5456   26.3046 N   0  0  0  0  0  0  0  0  0  0  0  0
   -4.5920  -20.2020   27.1371 H   0  0  0  0  0  0  0  0  0  0  0  0
   -6.1925  -20.9409   27.1215 H   0  0  0  0  0  0  0  0  0  0  0  0
   -5.4516  -20.4216   25.5833 H   0  0  0  0  0  0  0  0  0  0  0  0
   -4.4793  -18.2101   26.3147 H   0  0  0  0  0  0  0  0  0  0  0  0
   -5.8950  -17.8626   25.3160 H   0  0  0  0  0  0  0  0  0  0  0  0
   -6.2912  -14.0640   29.3090 H   0  0  0  0  0  0  0  0  0  0  0  0
   -3.5735  -13.0838   28.5151 H   0  0  0  0  0  0  0  0  0  0  0  0
   -1.9629  -12.5584   26.8816 H   0  0  0  0  0  0  0  0  0  0  0  0
   -1.9644  -12.9273   25.3043 H   0  0  0  0  0  0  0  0  0  0  0  0
    2.9344  -16.7683   25.5690 H   0  0  0  0  0  0  0  0  0  0  0  0
    5.0502  -16.4977   24.2055 H   0  0  0  0  0  0  0  0  0  0  0  0
    6.7534  -14.6729   23.0837 H   0  0  0  0  0  0  0  0  0  0  0  0
    6.7781  -11.8986   23.2035 H   0  0  0  0  0  0  0  0  0  0  0  0
  1  2  1  0
  2  3  1  0
  3  4  1  0
  4  5  2  0
  5  6  1  0
  6  7  2  0
  7  8  1  0
  8  9  1  0
  9 10  1  0
 10 11  1  0
 11 12  2  0
 11 13  1  0
 13 14  1  0
 14 15  2  0
 15 16  1  0
 16 17  1  0
 17 18  2  0
 18 19  1  0
 19 20  2  0
 20 21  1  0
  8 22  2  0
 22  4  1  0
 21 13  2  0
 20 16  1  0
  1 23  1  0
  1 24  1  0
  1 25  1  0
  3 26  1  0
  3 27  1  0
  6 28  1  0
  7 29  1  0
  9 30  1  0
  9 31  1  0
 14 32  1  0
 15 33  1  0
 17 34  1  0
 18 35  1  0
M  END
>  <Energy>  (1215) 
426.6242765548929

>  <compound_id>  (1215) 
81073

>  <target_id>  (1215) 
1

>  <reference_id>  (1215) 
54

>  <inspiration_ids>  (1215) 
[54, 106]

>  <energy_score>  (1215) 
287.23163226662535

>  <distance_score>  (1215) 
14.778315541091107

>  <path>  (1215) 
/opt/xchem-fragalysis-2/maxwin/BulkDock/SCRATCH/511024/C81073-P54/C81073-P54.minimised.mol

>  <scratch_subdir>  (1215) 
/opt/xchem-fragalysis-2/maxwin/BulkDock/SCRATCH/511024/C81073-P54

>  <fragmenstein_runtime>  (1215) 
9.696155548095703

>  <fragmenstein_outcome>  (1215) 
too moved

>  <fragmenstein_mode>  (1215) 
expansion

>  <fragmenstein_error>  (1215) 


$$$$
C81073-P106
     RDKit          3D

 35 37  0  0  0  0  0  0  0  0999 V2000
  -10.4605  -16.4545   22.9837 C   0  0  0  0  0  0  0  0  0  0  0  0
  -10.0118  -15.1205   22.7727 O   0  0  0  0  0  0  0  0  0  0  0  0
  -10.5228  -14.4829   21.5652 C   0  0  0  0  0  0  0  0  0  0  0  0
  -10.3712  -12.9180   21.5489 C   0  0  0  0  0  0  0  0  0  0  0  0
  -10.9411  -12.3114   22.6016 N   0  0  0  0  0  0  0  0  0  0  0  0
  -10.8210  -10.9725   22.6545 C   0  0  0  0  0  0  0  0  0  0  0  0
  -10.2159  -10.1797   21.6859 C   0  0  0  0  0  0  0  0  0  0  0  0
   -9.6779  -10.8065   20.5781 C   0  0  0  0  0  0  0  0  0  0  0  0
   -9.2193   -9.8322   19.3072 C   0  0  0  0  0  0  0  0  0  0  0  0
   -8.2907   -8.5857   19.4450 O   0  0  0  0  0  0  0  0  0  0  0  0
   -7.9682   -7.7843   18.3412 C   0  0  0  0  0  0  0  0  0  0  0  0
   -8.7117   -7.7180   17.3715 O   0  0  0  0  0  0  0  0  0  0  0  0
   -6.4537   -6.9829   18.2855 C   0  0  0  0  0  0  0  0  0  0  0  0
   -6.1717   -5.8442   19.2555 C   0  0  0  0  0  0  0  0  0  0  0  0
   -4.9261   -5.3168   19.2593 C   0  0  0  0  0  0  0  0  0  0  0  0
   -3.9701   -5.7749   18.3618 N   0  0  0  0  0  0  0  0  0  0  0  0
   -2.6530   -5.4092   18.1902 C   0  0  0  0  0  0  0  0  0  0  0  0
   -2.2021   -6.1733   17.1421 C   0  0  0  0  0  0  0  0  0  0  0  0
   -3.2104   -6.9851   16.6707 N   0  0  0  0  0  0  0  0  0  0  0  0
   -4.2776   -6.7611   17.4269 C   0  0  0  0  0  0  0  0  0  0  0  0
   -5.5363   -7.3616   17.4046 N   0  0  0  0  0  0  0  0  0  0  0  0
   -9.7365  -12.2095   20.5160 N   0  0  0  0  0  0  0  0  0  0  0  0
   -9.9752  -16.8372   23.8837 H   0  0  0  0  0  0  0  0  0  0  0  0
  -10.1835  -17.0836   22.1332 H   0  0  0  0  0  0  0  0  0  0  0  0
  -11.5443  -16.4691   23.1283 H   0  0  0  0  0  0  0  0  0  0  0  0
   -9.9950  -14.8980   20.7004 H   0  0  0  0  0  0  0  0  0  0  0  0
  -11.5927  -14.7009   21.4684 H   0  0  0  0  0  0  0  0  0  0  0  0
  -11.2632  -10.5118   23.5355 H   0  0  0  0  0  0  0  0  0  0  0  0
  -10.2054   -9.1007   21.7888 H   0  0  0  0  0  0  0  0  0  0  0  0
  -10.1516   -9.4596   18.8685 H   0  0  0  0  0  0  0  0  0  0  0  0
   -8.7192  -10.4934   18.5919 H   0  0  0  0  0  0  0  0  0  0  0  0
   -6.9570   -5.5404   19.9348 H   0  0  0  0  0  0  0  0  0  0  0  0
   -4.6248   -4.5344   19.9444 H   0  0  0  0  0  0  0  0  0  0  0  0
   -2.1746   -4.6689   18.8136 H   0  0  0  0  0  0  0  0  0  0  0  0
   -1.2152   -6.1912   16.6985 H   0  0  0  0  0  0  0  0  0  0  0  0
  1  2  1  0
  2  3  1  0
  3  4  1  0
  4  5  2  0
  5  6  1  0
  6  7  2  0
  7  8  1  0
  8  9  1  0
  9 10  1  0
 10 11  1  0
 11 12  2  0
 11 13  1  0
 13 14  1  0
 14 15  2  0
 15 16  1  0
 16 17  1  0
 17 18  2  0
 18 19  1  0
 19 20  2  0
 20 21  1  0
  8 22  2  0
 22  4  1  0
 21 13  2  0
 20 16  1  0
  1 23  1  0
  1 24  1  0
  1 25  1  0
  3 26  1  0
  3 27  1  0
  6 28  1  0
  7 29  1  0
  9 30  1  0
  9 31  1  0
 14 32  1  0
 15 33  1  0
 17 34  1  0
 18 35  1  0
M  END
>  <Energy>  (1216) 
150.79070104313078

>  <compound_id>  (1216) 
81073

>  <target_id>  (1216) 
1

>  <reference_id>  (1216) 
106

>  <inspiration_ids>  (1216) 
[54, 106]

>  <energy_score>  (1216) 
11.398056754869572

>  <distance_score>  (1216) 
16.559785858838495

>  <path>  (1216) 
/opt/xchem-fragalysis-2/maxwin/BulkDock/SCRATCH/511024/C81073-P106/C81073-P106.minimised.mol

>  <scratch_subdir>  (1216) 
/opt/xchem-fragalysis-2/maxwin/BulkDock/SCRATCH/511024/C81073-P106

>  <fragmenstein_runtime>  (1216) 
21.059755086898804

>  <fragmenstein_outcome>  (1216) 
too moved

>  <fragmenstein_mode>  (1216) 
expansion

>  <fragmenstein_error>  (1216) 


$$$$
C81086-P54
     RDKit          3D

 32 34  0  0  0  0  0  0  0  0999 V2000
   -1.6655  -12.9980   13.9986 C   0  0  0  0  0  0  0  0  0  0  0  0
   -1.6309  -11.8793   14.8872 O   0  0  0  0  0  0  0  0  0  0  0  0
   -2.7449  -11.7475   15.6556 C   0  0  0  0  0  0  0  0  0  0  0  0
   -3.7123  -12.4921   15.6235 O   0  0  0  0  0  0  0  0  0  0  0  0
   -2.6119  -10.5670   16.5715 C   0  0  0  0  0  0  0  0  0  0  0  0
   -1.4994   -9.7377   16.5365 C   0  0  0  0  0  0  0  0  0  0  0  0
   -1.4230   -8.7176   17.4646 C   0  0  0  0  0  0  0  0  0  0  0  0
   -0.3048   -7.8436   17.5086 N   0  0  0  0  0  0  0  0  0  0  0  0
    0.8924   -7.7875   16.6895 C   0  0  0  0  0  0  0  0  0  0  0  0
    1.2055   -8.4168   15.7154 O   0  0  0  0  0  0  0  0  0  0  0  0
    1.9250   -6.6516   17.0491 C   0  0  0  0  0  0  0  0  0  0  0  0
    2.4775   -5.9083   15.8428 C   0  0  0  0  0  0  0  0  0  0  0  0
    3.3737   -4.9385   16.0783 C   0  0  0  0  0  0  0  0  0  0  0  0
    3.7592   -4.6885   17.3802 N   0  0  0  0  0  0  0  0  0  0  0  0
    4.5976   -3.7292   17.8801 C   0  0  0  0  0  0  0  0  0  0  0  0
    4.6947   -4.0005   19.2208 C   0  0  0  0  0  0  0  0  0  0  0  0
    3.8805   -5.0536   19.5617 N   0  0  0  0  0  0  0  0  0  0  0  0
    3.2739   -5.4376   18.4520 C   0  0  0  0  0  0  0  0  0  0  0  0
    2.3091   -6.4108   18.2768 N   0  0  0  0  0  0  0  0  0  0  0  0
   -2.4405   -8.5234   18.3372 N   0  0  0  0  0  0  0  0  0  0  0  0
   -3.5213   -9.3328   18.2245 C   0  0  0  0  0  0  0  0  0  0  0  0
   -3.6366  -10.3948   17.4317 N   0  0  0  0  0  0  0  0  0  0  0  0
   -0.7299  -13.0094   13.4328 H   0  0  0  0  0  0  0  0  0  0  0  0
   -2.4964  -12.9014   13.2929 H   0  0  0  0  0  0  0  0  0  0  0  0
   -1.7406  -13.9328   14.5629 H   0  0  0  0  0  0  0  0  0  0  0  0
   -0.7033   -9.9048   15.8225 H   0  0  0  0  0  0  0  0  0  0  0  0
   -0.1919   -7.2222   18.3040 H   0  0  0  0  0  0  0  0  0  0  0  0
    2.1277   -6.1795   14.8547 H   0  0  0  0  0  0  0  0  0  0  0  0
    3.8122   -4.3363   15.2951 H   0  0  0  0  0  0  0  0  0  0  0  0
    5.0560   -2.9782   17.2592 H   0  0  0  0  0  0  0  0  0  0  0  0
    5.2931   -3.4858   19.9634 H   0  0  0  0  0  0  0  0  0  0  0  0
   -4.3824   -9.0923   18.8414 H   0  0  0  0  0  0  0  0  0  0  0  0
  1  2  1  0
  2  3  1  0
  3  4  2  0
  3  5  1  0
  5  6  2  0
  6  7  1  0
  7  8  1  0
  8  9  1  0
  9 10  2  0
  9 11  1  0
 11 12  1  0
 12 13  2  0
 13 14  1  0
 14 15  1  0
 15 16  2  0
 16 17  1  0
 17 18  2  0
 18 19  1  0
  7 20  2  0
 20 21  1  0
 21 22  2  0
 22  5  1  0
 19 11  2  0
 18 14  1  0
  1 23  1  0
  1 24  1  0
  1 25  1  0
  6 26  1  0
  8 27  1  0
 12 28  1  0
 13 29  1  0
 15 30  1  0
 16 31  1  0
 21 32  1  0
M  END
>  <Energy>  (1217) 
22.314936163367395

>  <compound_id>  (1217) 
81086

>  <target_id>  (1217) 
1

>  <reference_id>  (1217) 
54

>  <inspiration_ids>  (1217) 
[54, 106]

>  <energy_score>  (1217) 
-46.47900040807747

>  <distance_score>  (1217) 
15.831314283904623

>  <path>  (1217) 
/opt/xchem-fragalysis-2/maxwin/BulkDock/SCRATCH/511024/C81086-P54/C81086-P54.minimised.mol

>  <scratch_subdir>  (1217) 
/opt/xchem-fragalysis-2/maxwin/BulkDock/SCRATCH/511024/C81086-P54

>  <fragmenstein_runtime>  (1217) 
13.443019390106201

>  <fragmenstein_outcome>  (1217) 
too moved

>  <fragmenstein_mode>  (1217) 
expansion

>  <fragmenstein_error>  (1217) 


$$$$
C81086-P106
     RDKit          3D

 32 34  0  0  0  0  0  0  0  0999 V2000
    2.3522  -21.7090   26.1631 C   0  0  0  0  0  0  0  0  0  0  0  0
    2.1056  -20.4109   25.6173 O   0  0  0  0  0  0  0  0  0  0  0  0
    0.8002  -20.0583   25.6262 C   0  0  0  0  0  0  0  0  0  0  0  0
   -0.1478  -20.7143   26.0133 O   0  0  0  0  0  0  0  0  0  0  0  0
    0.6886  -18.7157   25.0300 C   0  0  0  0  0  0  0  0  0  0  0  0
    2.2593  -17.5461   24.7947 C   0  0  0  0  0  0  0  0  0  0  0  0
    1.8847  -15.7027   23.7541 C   0  0  0  0  0  0  0  0  0  0  0  0
    3.1693  -14.6201   23.2846 N   0  0  0  0  0  0  0  0  0  0  0  0
    4.6185  -14.7992   23.2685 C   0  0  0  0  0  0  0  0  0  0  0  0
    5.2974  -15.7113   23.6497 O   0  0  0  0  0  0  0  0  0  0  0  0
    5.4216  -13.4960   22.7053 C   0  0  0  0  0  0  0  0  0  0  0  0
    6.6429  -13.0821   23.5125 C   0  0  0  0  0  0  0  0  0  0  0  0
    7.3750  -12.0490   23.0546 C   0  0  0  0  0  0  0  0  0  0  0  0
    6.9928  -11.4104   21.8872 N   0  0  0  0  0  0  0  0  0  0  0  0
    7.5636  -10.3492   21.2274 C   0  0  0  0  0  0  0  0  0  0  0  0
    6.7542  -10.1298   20.1402 C   0  0  0  0  0  0  0  0  0  0  0  0
    5.7179  -11.0333   20.1152 N   0  0  0  0  0  0  0  0  0  0  0  0
    5.8626  -11.8107   21.1770 C   0  0  0  0  0  0  0  0  0  0  0  0
    5.0673  -12.8667   21.6063 N   0  0  0  0  0  0  0  0  0  0  0  0
    0.3230  -14.7019   24.3470 N   0  0  0  0  0  0  0  0  0  0  0  0
   -1.1717  -15.8923   24.5806 C   0  0  0  0  0  0  0  0  0  0  0  0
   -0.9488  -17.7547   25.3374 N   0  0  0  0  0  0  0  0  0  0  0  0
    1.8465  -22.4760   25.5681 H   0  0  0  0  0  0  0  0  0  0  0  0
    2.0298  -21.7530   27.2082 H   0  0  0  0  0  0  0  0  0  0  0  0
    3.4293  -21.8934   26.1242 H   0  0  0  0  0  0  0  0  0  0  0  0
    3.2690  -18.0226   24.8501 H   0  0  0  0  0  0  0  0  0  0  0  0
    2.9328  -13.7512   22.7984 H   0  0  0  0  0  0  0  0  0  0  0  0
    6.8815  -13.6442   24.4066 H   0  0  0  0  0  0  0  0  0  0  0  0
    8.2663  -11.6900   23.5533 H   0  0  0  0  0  0  0  0  0  0  0  0
    8.4591   -9.8599   21.5809 H   0  0  0  0  0  0  0  0  0  0  0  0
    6.8531   -9.3738   19.3744 H   0  0  0  0  0  0  0  0  0  0  0  0
   -0.5450  -17.1167   25.1963 H   0  0  0  0  0  0  0  0  0  0  0  0
  1  2  1  0
  2  3  1  0
  3  4  2  0
  3  5  1  0
  5  6  2  0
  6  7  1  0
  7  8  1  0
  8  9  1  0
  9 10  2  0
  9 11  1  0
 11 12  1  0
 12 13  2  0
 13 14  1  0
 14 15  1  0
 15 16  2  0
 16 17  1  0
 17 18  2  0
 18 19  1  0
  7 20  2  0
 20 21  1  0
 21 22  2  0
 22  5  1  0
 19 11  2  0
 18 14  1  0
  1 23  1  0
  1 24  1  0
  1 25  1  0
  6 26  1  0
  8 27  1  0
 12 28  1  0
 13 29  1  0
 15 30  1  0
 16 31  1  0
 21 32  1  0
M  END
>  <Energy>  (1218) 
1062.29209205813

>  <compound_id>  (1218) 
81086

>  <target_id>  (1218) 
1

>  <reference_id>  (1218) 
106

>  <inspiration_ids>  (1218) 
[54, 106]

>  <energy_score>  (1218) 
993.4981554866836

>  <distance_score>  (1218) 
14.547458249884608

>  <path>  (1218) 
/opt/xchem-fragalysis-2/maxwin/BulkDock/SCRATCH/511024/C81086-P106/C81086-P106.minimised.mol

>  <scratch_subdir>  (1218) 
/opt/xchem-fragalysis-2/maxwin/BulkDock/SCRATCH/511024/C81086-P106

>  <fragmenstein_runtime>  (1218) 
14.355048894882202

>  <fragmenstein_outcome>  (1218) 
too moved

>  <fragmenstein_mode>  (1218) 
expansion

>  <fragmenstein_error>  (1218) 


$$$$
C81081-P54
     RDKit          3D

 44 47  0  0  0  0  0  0  0  0999 V2000
   -3.2822  -21.0857   28.9828 O   0  0  0  0  0  0  0  0  0  0  0  0
   -2.9565  -20.4959   29.9972 C   0  0  0  0  0  0  0  0  0  0  0  0
   -3.5873  -20.5201   31.4273 N   0  0  0  0  0  0  0  0  0  0  0  0
   -5.0041  -21.5666   32.1443 C   0  0  0  0  0  0  0  0  0  0  0  0
   -6.8244  -22.3629   32.5599 C   0  0  0  0  0  0  0  0  0  0  0  0
   -7.9282  -22.6119   31.3322 C   0  0  0  0  0  0  0  0  0  0  0  0
   -9.3233  -21.9945   31.5767 C   0  0  0  0  0  0  0  0  0  0  0  0
   -9.9962  -22.9524   32.4022 N   0  0  0  0  0  0  0  0  0  0  0  0
  -10.6136  -23.8560   31.5142 C   0  0  0  0  0  0  0  0  0  0  0  0
  -11.2016  -23.3318   30.4067 N   0  0  0  0  0  0  0  0  0  0  0  0
  -11.7602  -24.1254   29.4801 C   0  0  0  0  0  0  0  0  0  0  0  0
  -11.8362  -25.4736   29.6275 C   0  0  0  0  0  0  0  0  0  0  0  0
  -11.2689  -25.9397   30.7839 C   0  0  0  0  0  0  0  0  0  0  0  0
  -10.6137  -25.1801   31.7032 N   0  0  0  0  0  0  0  0  0  0  0  0
   -9.1327  -23.2494   33.5841 C   0  0  0  0  0  0  0  0  0  0  0  0
   -7.8828  -22.1639   33.7252 C   0  0  0  0  0  0  0  0  0  0  0  0
   -1.5964  -19.6877   29.7490 C   0  0  0  0  0  0  0  0  0  0  0  0
   -0.9224  -20.0935   28.4273 C   0  0  0  0  0  0  0  0  0  0  0  0
    0.4070  -19.9831   28.3744 C   0  0  0  0  0  0  0  0  0  0  0  0
    1.0418  -19.2873   29.3778 N   0  0  0  0  0  0  0  0  0  0  0  0
    2.3802  -19.1417   29.6107 C   0  0  0  0  0  0  0  0  0  0  0  0
    2.4528  -18.2818   30.6705 C   0  0  0  0  0  0  0  0  0  0  0  0
    1.1935  -17.9351   31.1021 N   0  0  0  0  0  0  0  0  0  0  0  0
    0.3330  -18.6208   30.3760 C   0  0  0  0  0  0  0  0  0  0  0  0
   -1.0139  -18.8838   30.6072 N   0  0  0  0  0  0  0  0  0  0  0  0
   -3.0129  -19.9728   32.0531 H   0  0  0  0  0  0  0  0  0  0  0  0
   -5.2186  -21.8005   31.1113 H   0  0  0  0  0  0  0  0  0  0  0  0
   -5.4383  -20.6948   32.4261 H   0  0  0  0  0  0  0  0  0  0  0  0
   -6.5706  -23.3472   32.9375 H   0  0  0  0  0  0  0  0  0  0  0  0
   -8.1791  -23.6735   31.2633 H   0  0  0  0  0  0  0  0  0  0  0  0
   -7.5249  -22.4470   30.3367 H   0  0  0  0  0  0  0  0  0  0  0  0
   -9.3430  -21.0629   32.1400 H   0  0  0  0  0  0  0  0  0  0  0  0
   -9.8141  -21.7489   30.6300 H   0  0  0  0  0  0  0  0  0  0  0  0
  -12.1715  -23.6152   28.6160 H   0  0  0  0  0  0  0  0  0  0  0  0
  -12.3179  -26.1178   28.9078 H   0  0  0  0  0  0  0  0  0  0  0  0
  -11.3286  -26.9985   31.0178 H   0  0  0  0  0  0  0  0  0  0  0  0
   -9.7382  -23.1541   34.4878 H   0  0  0  0  0  0  0  0  0  0  0  0
   -8.7233  -24.2653   33.5401 H   0  0  0  0  0  0  0  0  0  0  0  0
   -7.4347  -22.2950   34.6993 H   0  0  0  0  0  0  0  0  0  0  0  0
   -8.2895  -21.1532   33.7156 H   0  0  0  0  0  0  0  0  0  0  0  0
   -1.4953  -20.6117   27.6689 H   0  0  0  0  0  0  0  0  0  0  0  0
    1.0056  -20.3958   27.5724 H   0  0  0  0  0  0  0  0  0  0  0  0
    3.1306  -19.6618   29.0350 H   0  0  0  0  0  0  0  0  0  0  0  0
    3.3387  -17.9135   31.1728 H   0  0  0  0  0  0  0  0  0  0  0  0
  1  2  2  0
  2  3  1  0
  3  4  1  0
  4  5  1  0
  5  6  1  0
  6  7  1  0
  7  8  1  0
  8  9  1  0
  9 10  2  0
 10 11  1  0
 11 12  2  0
 12 13  1  0
 13 14  2  0
  8 15  1  0
 15 16  1  0
  2 17  1  0
 17 18  1  0
 18 19  2  0
 19 20  1  0
 20 21  1  0
 21 22  2  0
 22 23  1  0
 23 24  2  0
 24 25  1  0
 16  5  1  0
 25 17  2  0
 14  9  1  0
 24 20  1  0
  3 26  1  0
  4 27  1  0
  4 28  1  0
  5 29  1  0
  6 30  1  0
  6 31  1  0
  7 32  1  0
  7 33  1  0
 11 34  1  0
 12 35  1  0
 13 36  1  0
 15 37  1  0
 15 38  1  0
 16 39  1  0
 16 40  1  0
 18 41  1  0
 19 42  1  0
 21 43  1  0
 22 44  1  0
M  END
>  <Energy>  (1219) 
264.18125442558045

>  <compound_id>  (1219) 
81081

>  <target_id>  (1219) 
1

>  <reference_id>  (1219) 
54

>  <inspiration_ids>  (1219) 
[54, 106]

>  <energy_score>  (1219) 
237.1901444410086

>  <distance_score>  (1219) 
17.943293471513115

>  <path>  (1219) 
/opt/xchem-fragalysis-2/maxwin/BulkDock/SCRATCH/511024/C81081-P54/C81081-P54.minimised.mol

>  <scratch_subdir>  (1219) 
/opt/xchem-fragalysis-2/maxwin/BulkDock/SCRATCH/511024/C81081-P54

>  <fragmenstein_runtime>  (1219) 
22.808135747909546

>  <fragmenstein_outcome>  (1219) 
too moved

>  <fragmenstein_mode>  (1219) 
expansion

>  <fragmenstein_error>  (1219) 


$$$$
C81081-P106
     RDKit          3D

 44 47  0  0  0  0  0  0  0  0999 V2000
    4.5556   -9.9648   27.0843 O   0  0  0  0  0  0  0  0  0  0  0  0
    4.3118  -10.3496   28.1642 C   0  0  0  0  0  0  0  0  0  0  0  0
    2.6831  -11.2138   28.4661 N   0  0  0  0  0  0  0  0  0  0  0  0
    1.1876  -11.7875   27.1983 C   0  0  0  0  0  0  0  0  0  0  0  0
    0.1056  -13.7221   27.1508 C   0  0  0  0  0  0  0  0  0  0  0  0
   -1.6298  -14.7979   27.5208 C   0  0  0  0  0  0  0  0  0  0  0  0
   -2.6464  -15.0183   29.1353 C   0  0  0  0  0  0  0  0  0  0  0  0
   -2.3113  -15.6083   30.4919 N   0  0  0  0  0  0  0  0  0  0  0  0
   -3.2236  -16.6886   30.9104 C   0  0  0  0  0  0  0  0  0  0  0  0
   -4.4124  -16.9295   30.3241 N   0  0  0  0  0  0  0  0  0  0  0  0
   -5.1028  -17.9617   30.8133 C   0  0  0  0  0  0  0  0  0  0  0  0
   -4.5679  -18.9854   31.4898 C   0  0  0  0  0  0  0  0  0  0  0  0
   -3.3197  -18.7225   31.8698 C   0  0  0  0  0  0  0  0  0  0  0  0
   -2.8296  -17.4965   31.8618 N   0  0  0  0  0  0  0  0  0  0  0  0
   -0.5807  -15.3468   30.5781 C   0  0  0  0  0  0  0  0  0  0  0  0
    0.0490  -15.1744   28.7666 C   0  0  0  0  0  0  0  0  0  0  0  0
    5.5441  -10.1269   29.0529 C   0  0  0  0  0  0  0  0  0  0  0  0
    6.6217  -11.1755   28.9718 C   0  0  0  0  0  0  0  0  0  0  0  0
    7.6170  -10.9778   28.0715 C   0  0  0  0  0  0  0  0  0  0  0  0
    7.7161   -9.7574   27.4026 N   0  0  0  0  0  0  0  0  0  0  0  0
    8.5196   -9.3257   26.3738 C   0  0  0  0  0  0  0  0  0  0  0  0
    8.1616   -8.0128   26.1624 C   0  0  0  0  0  0  0  0  0  0  0  0
    7.1936   -7.6215   27.0609 N   0  0  0  0  0  0  0  0  0  0  0  0
    6.9369   -8.6855   27.8046 C   0  0  0  0  0  0  0  0  0  0  0  0
    6.0339   -8.8607   28.8423 N   0  0  0  0  0  0  0  0  0  0  0  0
    2.5948  -11.4047   29.4667 H   0  0  0  0  0  0  0  0  0  0  0  0
    0.6053  -10.9333   27.6406 H   0  0  0  0  0  0  0  0  0  0  0  0
    1.3804  -11.6601   26.1601 H   0  0  0  0  0  0  0  0  0  0  0  0
    0.9842  -14.0376   26.4762 H   0  0  0  0  0  0  0  0  0  0  0  0
   -2.2354  -14.6220   26.6214 H   0  0  0  0  0  0  0  0  0  0  0  0
   -1.5938  -15.8905   27.4626 H   0  0  0  0  0  0  0  0  0  0  0  0
   -3.2179  -15.8541   28.7045 H   0  0  0  0  0  0  0  0  0  0  0  0
   -2.9356  -14.0424   29.5046 H   0  0  0  0  0  0  0  0  0  0  0  0
   -6.1325  -18.0649   30.5854 H   0  0  0  0  0  0  0  0  0  0  0  0
   -5.0977  -19.8810   31.7577 H   0  0  0  0  0  0  0  0  0  0  0  0
   -2.7240  -19.3886   32.4643 H   0  0  0  0  0  0  0  0  0  0  0  0
   -0.3745  -14.4792   31.2144 H   0  0  0  0  0  0  0  0  0  0  0  0
   -0.0408  -16.2078   30.9702 H   0  0  0  0  0  0  0  0  0  0  0  0
    0.6432  -16.1004   28.6988 H   0  0  0  0  0  0  0  0  0  0  0  0
   -0.8658  -14.8888   29.0106 H   0  0  0  0  0  0  0  0  0  0  0  0
    6.5157  -12.0031   29.6456 H   0  0  0  0  0  0  0  0  0  0  0  0
    8.3898  -11.7095   27.8734 H   0  0  0  0  0  0  0  0  0  0  0  0
    9.2352   -9.9740   25.8904 H   0  0  0  0  0  0  0  0  0  0  0  0
    8.5541   -7.3241   25.4251 H   0  0  0  0  0  0  0  0  0  0  0  0
  1  2  2  0
  2  3  1  0
  3  4  1  0
  4  5  1  0
  5  6  1  0
  6  7  1  0
  7  8  1  0
  8  9  1  0
  9 10  2  0
 10 11  1  0
 11 12  2  0
 12 13  1  0
 13 14  2  0
  8 15  1  0
 15 16  1  0
  2 17  1  0
 17 18  1  0
 18 19  2  0
 19 20  1  0
 20 21  1  0
 21 22  2  0
 22 23  1  0
 23 24  2  0
 24 25  1  0
 16  5  1  0
 25 17  2  0
 14  9  1  0
 24 20  1  0
  3 26  1  0
  4 27  1  0
  4 28  1  0
  5 29  1  0
  6 30  1  0
  6 31  1  0
  7 32  1  0
  7 33  1  0
 11 34  1  0
 12 35  1  0
 13 36  1  0
 15 37  1  0
 15 38  1  0
 16 39  1  0
 16 40  1  0
 18 41  1  0
 19 42  1  0
 21 43  1  0
 22 44  1  0
M  END
>  <Energy>  (1220) 
926.01935091462201

>  <compound_id>  (1220) 
81081

>  <target_id>  (1220) 
1

>  <reference_id>  (1220) 
106

>  <inspiration_ids>  (1220) 
[54, 106]

>  <energy_score>  (1220) 
899.02824093005

>  <distance_score>  (1220) 
13.513128895029352

>  <path>  (1220) 
/opt/xchem-fragalysis-2/maxwin/BulkDock/SCRATCH/511024/C81081-P106/C81081-P106.minimised.mol

>  <scratch_subdir>  (1220) 
/opt/xchem-fragalysis-2/maxwin/BulkDock/SCRATCH/511024/C81081-P106

>  <fragmenstein_runtime>  (1220) 
25.772003889083862

>  <fragmenstein_outcome>  (1220) 
too moved

>  <fragmenstein_mode>  (1220) 
expansion

>  <fragmenstein_error>  (1220) 


$$$$
C81082-P54
     RDKit          3D

 44 47  0  0  0  0  0  0  0  0999 V2000
    9.1891  -14.0165   32.9582 O   0  0  0  0  0  0  0  0  0  0  0  0
    8.5536  -14.5197   32.0687 C   0  0  0  0  0  0  0  0  0  0  0  0
    7.4571  -15.5473   32.1150 N   0  0  0  0  0  0  0  0  0  0  0  0
    6.7229  -16.2101   33.3367 C   0  0  0  0  0  0  0  0  0  0  0  0
    5.5267  -17.3944   33.2410 C   0  0  0  0  0  0  0  0  0  0  0  0
    6.0902  -18.7117   33.8337 C   0  0  0  0  0  0  0  0  0  0  0  0
    5.4305  -19.1336   35.1417 C   0  0  0  0  0  0  0  0  0  0  0  0
    3.9617  -19.4399   34.9385 C   0  0  0  0  0  0  0  0  0  0  0  0
    3.2843  -18.3291   34.2908 N   0  0  0  0  0  0  0  0  0  0  0  0
    1.8929  -18.4997   34.3233 C   0  0  0  0  0  0  0  0  0  0  0  0
    1.4404  -19.7806   34.3806 N   0  0  0  0  0  0  0  0  0  0  0  0
    0.1255  -20.0338   34.3059 C   0  0  0  0  0  0  0  0  0  0  0  0
   -0.7933  -19.0400   34.2009 C   0  0  0  0  0  0  0  0  0  0  0  0
   -0.2861  -17.7638   34.1875 C   0  0  0  0  0  0  0  0  0  0  0  0
    1.0414  -17.4729   34.2105 N   0  0  0  0  0  0  0  0  0  0  0  0
    4.0614  -17.0962   33.9369 C   0  0  0  0  0  0  0  0  0  0  0  0
    8.9613  -13.8257   30.6188 C   0  0  0  0  0  0  0  0  0  0  0  0
    9.6544  -14.6652   29.5708 C   0  0  0  0  0  0  0  0  0  0  0  0
   10.1449  -14.0306   28.4821 C   0  0  0  0  0  0  0  0  0  0  0  0
    9.9992  -12.6551   28.3446 N   0  0  0  0  0  0  0  0  0  0  0  0
   10.3825  -11.8111   27.3258 C   0  0  0  0  0  0  0  0  0  0  0  0
    9.9608  -10.5633   27.7147 C   0  0  0  0  0  0  0  0  0  0  0  0
    9.3428  -10.6259   28.9459 N   0  0  0  0  0  0  0  0  0  0  0  0
    9.3633  -11.8997   29.3266 C   0  0  0  0  0  0  0  0  0  0  0  0
    8.8508  -12.5114   30.4688 N   0  0  0  0  0  0  0  0  0  0  0  0
    7.2018  -15.8047   31.1692 H   0  0  0  0  0  0  0  0  0  0  0  0
    7.5408  -16.5680   33.9717 H   0  0  0  0  0  0  0  0  0  0  0  0
    6.2912  -15.3629   33.8827 H   0  0  0  0  0  0  0  0  0  0  0  0
    5.3548  -17.5687   32.1722 H   0  0  0  0  0  0  0  0  0  0  0  0
    7.1724  -18.6414   33.9893 H   0  0  0  0  0  0  0  0  0  0  0  0
    5.9709  -19.5203   33.1089 H   0  0  0  0  0  0  0  0  0  0  0  0
    5.5623  -18.3464   35.8945 H   0  0  0  0  0  0  0  0  0  0  0  0
    5.9338  -20.0262   35.5317 H   0  0  0  0  0  0  0  0  0  0  0  0
    3.8807  -20.3470   34.3248 H   0  0  0  0  0  0  0  0  0  0  0  0
    3.5265  -19.6547   35.9240 H   0  0  0  0  0  0  0  0  0  0  0  0
   -0.1572  -21.0805   34.3333 H   0  0  0  0  0  0  0  0  0  0  0  0
   -1.8305  -19.2706   34.1218 H   0  0  0  0  0  0  0  0  0  0  0  0
   -0.9409  -16.8995   34.1211 H   0  0  0  0  0  0  0  0  0  0  0  0
    3.4803  -16.4790   33.2466 H   0  0  0  0  0  0  0  0  0  0  0  0
    4.2242  -16.5117   34.8497 H   0  0  0  0  0  0  0  0  0  0  0  0
    9.7584  -15.7275   29.7424 H   0  0  0  0  0  0  0  0  0  0  0  0
   10.6599  -14.5502   27.6840 H   0  0  0  0  0  0  0  0  0  0  0  0
   10.8903  -12.1681   26.4426 H   0  0  0  0  0  0  0  0  0  0  0  0
   10.0631   -9.6246   27.1862 H   0  0  0  0  0  0  0  0  0  0  0  0
  1  2  2  0
  2  3  1  0
  3  4  1  0
  4  5  1  0
  5  6  1  0
  6  7  1  0
  7  8  1  0
  8  9  1  0
  9 10  1  0
 10 11  2  0
 11 12  1  0
 12 13  2  0
 13 14  1  0
 14 15  2  0
  9 16  1  0
  2 17  1  0
 17 18  1  0
 18 19  2  0
 19 20  1  0
 20 21  1  0
 21 22  2  0
 22 23  1  0
 23 24  2  0
 24 25  1  0
 16  5  1  0
 25 17  2  0
 15 10  1  0
 24 20  1  0
  3 26  1  0
  4 27  1  0
  4 28  1  0
  5 29  1  0
  6 30  1  0
  6 31  1  0
  7 32  1  0
  7 33  1  0
  8 34  1  0
  8 35  1  0
 12 36  1  0
 13 37  1  0
 14 38  1  0
 16 39  1  0
 16 40  1  0
 18 41  1  0
 19 42  1  0
 21 43  1  0
 22 44  1  0
M  END
>  <Energy>  (1221) 
50.033866515380808

>  <compound_id>  (1221) 
81082

>  <target_id>  (1221) 
1

>  <reference_id>  (1221) 
54

>  <inspiration_ids>  (1221) 
[54, 106]

>  <energy_score>  (1221) 
32.05204111446335

>  <distance_score>  (1221) 
16.332385293447288

>  <path>  (1221) 
/opt/xchem-fragalysis-2/maxwin/BulkDock/SCRATCH/511024/C81082-P54/C81082-P54.minimised.mol

>  <scratch_subdir>  (1221) 
/opt/xchem-fragalysis-2/maxwin/BulkDock/SCRATCH/511024/C81082-P54

>  <fragmenstein_runtime>  (1221) 
26.08421492576599

>  <fragmenstein_outcome>  (1221) 
too moved

>  <fragmenstein_mode>  (1221) 
expansion

>  <fragmenstein_error>  (1221) 


$$$$
C81082-P106
     RDKit          3D

 44 47  0  0  0  0  0  0  0  0999 V2000
    3.7034  -14.3873   27.0890 O   0  0  0  0  0  0  0  0  0  0  0  0
    3.9919  -15.4020   26.5416 C   0  0  0  0  0  0  0  0  0  0  0  0
    2.9201  -16.9649   26.8197 N   0  0  0  0  0  0  0  0  0  0  0  0
    1.2381  -17.2189   27.7816 C   0  0  0  0  0  0  0  0  0  0  0  0
   -0.7168  -17.8356   27.3375 C   0  0  0  0  0  0  0  0  0  0  0  0
   -1.9355  -19.2913   27.0854 C   0  0  0  0  0  0  0  0  0  0  0  0
   -3.5737  -19.6710   27.7323 C   0  0  0  0  0  0  0  0  0  0  0  0
   -4.5839  -18.0360   28.3971 C   0  0  0  0  0  0  0  0  0  0  0  0
   -3.7105  -16.8803   28.4662 N   0  0  0  0  0  0  0  0  0  0  0  0
   -3.8877  -16.4239   29.9476 C   0  0  0  0  0  0  0  0  0  0  0  0
   -3.2019  -15.3639   30.4237 N   0  0  0  0  0  0  0  0  0  0  0  0
   -3.4629  -14.9104   31.6643 C   0  0  0  0  0  0  0  0  0  0  0  0
   -4.3611  -15.4849   32.5165 C   0  0  0  0  0  0  0  0  0  0  0  0
   -4.9714  -16.5895   32.0188 C   0  0  0  0  0  0  0  0  0  0  0  0
   -4.7542  -17.0349   30.7793 N   0  0  0  0  0  0  0  0  0  0  0  0
   -2.2464  -16.7506   27.4323 C   0  0  0  0  0  0  0  0  0  0  0  0
    5.4955  -15.0671   25.2861 C   0  0  0  0  0  0  0  0  0  0  0  0
    6.4274  -13.5749   25.6266 C   0  0  0  0  0  0  0  0  0  0  0  0
    7.6380  -13.4255   25.0793 C   0  0  0  0  0  0  0  0  0  0  0  0
    8.0385  -14.3483   24.1412 N   0  0  0  0  0  0  0  0  0  0  0  0
    9.1259  -14.2541   23.3043 C   0  0  0  0  0  0  0  0  0  0  0  0
    8.9526  -15.2535   22.3850 C   0  0  0  0  0  0  0  0  0  0  0  0
    7.8209  -15.9845   22.6676 N   0  0  0  0  0  0  0  0  0  0  0  0
    7.2587  -15.4653   23.7519 C   0  0  0  0  0  0  0  0  0  0  0  0
    6.0113  -15.8156   24.3136 N   0  0  0  0  0  0  0  0  0  0  0  0
    3.2548  -17.7027   26.2196 H   0  0  0  0  0  0  0  0  0  0  0  0
    1.2983  -17.2535   28.8793 H   0  0  0  0  0  0  0  0  0  0  0  0
    1.3096  -16.1552   28.0599 H   0  0  0  0  0  0  0  0  0  0  0  0
   -0.4995  -17.9565   26.2925 H   0  0  0  0  0  0  0  0  0  0  0  0
   -2.2085  -19.1820   26.0462 H   0  0  0  0  0  0  0  0  0  0  0  0
   -1.4570  -20.2621   27.3103 H   0  0  0  0  0  0  0  0  0  0  0  0
   -4.1885  -20.2506   27.0187 H   0  0  0  0  0  0  0  0  0  0  0  0
   -3.3279  -20.4332   28.5014 H   0  0  0  0  0  0  0  0  0  0  0  0
   -4.9181  -18.2350   29.3845 H   0  0  0  0  0  0  0  0  0  0  0  0
   -5.3941  -17.6879   27.7250 H   0  0  0  0  0  0  0  0  0  0  0  0
   -2.8940  -14.0311   31.9517 H   0  0  0  0  0  0  0  0  0  0  0  0
   -4.5529  -15.1024   33.5064 H   0  0  0  0  0  0  0  0  0  0  0  0
   -5.7014  -17.1569   32.5869 H   0  0  0  0  0  0  0  0  0  0  0  0
   -2.6110  -16.9276   26.4415 H   0  0  0  0  0  0  0  0  0  0  0  0
   -1.9464  -15.6942   27.5585 H   0  0  0  0  0  0  0  0  0  0  0  0
    5.9902  -12.8837   26.3371 H   0  0  0  0  0  0  0  0  0  0  0  0
    8.2776  -12.5748   25.2703 H   0  0  0  0  0  0  0  0  0  0  0  0
    9.8731  -13.4816   23.4082 H   0  0  0  0  0  0  0  0  0  0  0  0
    9.5771  -15.5010   21.5363 H   0  0  0  0  0  0  0  0  0  0  0  0
  1  2  2  0
  2  3  1  0
  3  4  1  0
  4  5  1  0
  5  6  1  0
  6  7  1  0
  7  8  1  0
  8  9  1  0
  9 10  1  0
 10 11  2  0
 11 12  1  0
 12 13  2  0
 13 14  1  0
 14 15  2  0
  9 16  1  0
  2 17  1  0
 17 18  1  0
 18 19  2  0
 19 20  1  0
 20 21  1  0
 21 22  2  0
 22 23  1  0
 23 24  2  0
 24 25  1  0
 16  5  1  0
 25 17  2  0
 15 10  1  0
 24 20  1  0
  3 26  1  0
  4 27  1  0
  4 28  1  0
  5 29  1  0
  6 30  1  0
  6 31  1  0
  7 32  1  0
  7 33  1  0
  8 34  1  0
  8 35  1  0
 12 36  1  0
 13 37  1  0
 14 38  1  0
 16 39  1  0
 16 40  1  0
 18 41  1  0
 19 42  1  0
 21 43  1  0
 22 44  1  0
M  END
>  <Energy>  (1222) 
618.10593784099569

>  <compound_id>  (1222) 
81082

>  <target_id>  (1222) 
1

>  <reference_id>  (1222) 
106

>  <inspiration_ids>  (1222) 
[54, 106]

>  <energy_score>  (1222) 
600.1241124400856

>  <distance_score>  (1222) 
14.159013378131258

>  <path>  (1222) 
/opt/xchem-fragalysis-2/maxwin/BulkDock/SCRATCH/511024/C81082-P106/C81082-P106.minimised.mol

>  <scratch_subdir>  (1222) 
/opt/xchem-fragalysis-2/maxwin/BulkDock/SCRATCH/511024/C81082-P106

>  <fragmenstein_runtime>  (1222) 
41.616334438323975

>  <fragmenstein_outcome>  (1222) 
too moved

>  <fragmenstein_mode>  (1222) 
expansion

>  <fragmenstein_error>  (1222) 


$$$$
C81084-P54
     RDKit          3D

 39 41  0  0  0  0  0  0  0  0999 V2000
   -2.5772  -20.3450   28.5633 C   0  0  0  0  0  0  0  0  0  0  0  0
   -2.3936  -20.1577   27.0537 C   0  0  0  0  0  0  0  0  0  0  0  0
   -3.7315  -19.8421   26.3895 C   0  0  0  0  0  0  0  0  0  0  0  0
   -1.4376  -19.0856   26.8924 O   0  0  0  0  0  0  0  0  0  0  0  0
   -0.7714  -19.0372   25.6700 C   0  0  0  0  0  0  0  0  0  0  0  0
   -1.3467  -19.6216   24.6146 N   0  0  0  0  0  0  0  0  0  0  0  0
   -0.6744  -19.5199   23.4576 C   0  0  0  0  0  0  0  0  0  0  0  0
    0.5493  -18.8776   23.3116 C   0  0  0  0  0  0  0  0  0  0  0  0
    1.1264  -18.3106   24.4395 C   0  0  0  0  0  0  0  0  0  0  0  0
    2.6746  -17.9265   24.3816 C   0  0  0  0  0  0  0  0  0  0  0  0
    3.2702  -16.6266   23.8648 N   0  0  0  0  0  0  0  0  0  0  0  0
    4.5017  -16.3690   23.0793 C   0  0  0  0  0  0  0  0  0  0  0  0
    5.2896  -17.1332   22.5900 O   0  0  0  0  0  0  0  0  0  0  0  0
    4.9625  -14.8314   22.8073 C   0  0  0  0  0  0  0  0  0  0  0  0
    5.6506  -14.0959   23.9373 C   0  0  0  0  0  0  0  0  0  0  0  0
    6.2265  -12.9117   23.6441 C   0  0  0  0  0  0  0  0  0  0  0  0
    6.1576  -12.4091   22.3521 N   0  0  0  0  0  0  0  0  0  0  0  0
    6.6853  -11.2567   21.8157 C   0  0  0  0  0  0  0  0  0  0  0  0
    6.3198  -11.2780   20.4924 C   0  0  0  0  0  0  0  0  0  0  0  0
    5.5872  -12.4070   20.2127 N   0  0  0  0  0  0  0  0  0  0  0  0
    5.4847  -13.0936   21.3419 C   0  0  0  0  0  0  0  0  0  0  0  0
    4.8827  -14.3212   21.5908 N   0  0  0  0  0  0  0  0  0  0  0  0
    0.4362  -18.3772   25.6322 N   0  0  0  0  0  0  0  0  0  0  0  0
   -1.6091  -20.5513   29.0337 H   0  0  0  0  0  0  0  0  0  0  0  0
   -3.2438  -21.1797   28.7866 H   0  0  0  0  0  0  0  0  0  0  0  0
   -2.9505  -19.4267   29.0240 H   0  0  0  0  0  0  0  0  0  0  0  0
   -1.9808  -21.0940   26.6554 H   0  0  0  0  0  0  0  0  0  0  0  0
   -3.9842  -18.7876   26.4950 H   0  0  0  0  0  0  0  0  0  0  0  0
   -3.6980  -20.0418   25.3143 H   0  0  0  0  0  0  0  0  0  0  0  0
   -4.5428  -20.4500   26.7996 H   0  0  0  0  0  0  0  0  0  0  0  0
   -1.1467  -20.0062   22.6073 H   0  0  0  0  0  0  0  0  0  0  0  0
    1.0661  -18.8929   22.3580 H   0  0  0  0  0  0  0  0  0  0  0  0
    3.0729  -18.0557   25.3916 H   0  0  0  0  0  0  0  0  0  0  0  0
    3.1634  -18.7143   23.7932 H   0  0  0  0  0  0  0  0  0  0  0  0
    2.8959  -15.7486   24.1901 H   0  0  0  0  0  0  0  0  0  0  0  0
    5.6873  -14.5580   24.9146 H   0  0  0  0  0  0  0  0  0  0  0  0
    6.7604  -12.3214   24.3778 H   0  0  0  0  0  0  0  0  0  0  0  0
    7.2543  -10.5548   22.4063 H   0  0  0  0  0  0  0  0  0  0  0  0
    6.5392  -10.5517   19.7213 H   0  0  0  0  0  0  0  0  0  0  0  0
  1  2  1  0
  2  3  1  0
  2  4  1  0
  4  5  1  0
  5  6  2  0
  6  7  1  0
  7  8  2  0
  8  9  1  0
  9 10  1  0
 10 11  1  0
 11 12  1  0
 12 13  2  0
 12 14  1  0
 14 15  1  0
 15 16  2  0
 16 17  1  0
 17 18  1  0
 18 19  2  0
 19 20  1  0
 20 21  2  0
 21 22  1  0
  9 23  2  0
 23  5  1  0
 22 14  2  0
 21 17  1  0
  1 24  1  0
  1 25  1  0
  1 26  1  0
  2 27  1  0
  3 28  1  0
  3 29  1  0
  3 30  1  0
  7 31  1  0
  8 32  1  0
 10 33  1  0
 10 34  1  0
 11 35  1  0
 15 36  1  0
 16 37  1  0
 18 38  1  0
 19 39  1  0
M  END
>  <Energy>  (1223) 
59.270929892689466

>  <compound_id>  (1223) 
81084

>  <target_id>  (1223) 
1

>  <reference_id>  (1223) 
54

>  <inspiration_ids>  (1223) 
[54, 106]

>  <energy_score>  (1223) 
10.745176766888676

>  <distance_score>  (1223) 
14.108601195153906

>  <path>  (1223) 
/opt/xchem-fragalysis-2/maxwin/BulkDock/SCRATCH/511024/C81084-P54/C81084-P54.minimised.mol

>  <scratch_subdir>  (1223) 
/opt/xchem-fragalysis-2/maxwin/BulkDock/SCRATCH/511024/C81084-P54

>  <fragmenstein_runtime>  (1223) 
18.420718908309937

>  <fragmenstein_outcome>  (1223) 
too moved

>  <fragmenstein_mode>  (1223) 
expansion

>  <fragmenstein_error>  (1223) 


$$$$
C81084-P106
     RDKit          3D

 39 41  0  0  0  0  0  0  0  0999 V2000
   -8.0318  -14.8332   25.7587 C   0  0  0  0  0  0  0  0  0  0  0  0
   -6.9957  -13.4452   26.3419 C   0  0  0  0  0  0  0  0  0  0  0  0
   -7.9087  -13.2217   27.6242 C   0  0  0  0  0  0  0  0  0  0  0  0
   -6.3253  -12.1399   25.2314 O   0  0  0  0  0  0  0  0  0  0  0  0
   -4.7922  -11.9489   24.3868 C   0  0  0  0  0  0  0  0  0  0  0  0
   -3.6922  -12.4384   24.7217 N   0  0  0  0  0  0  0  0  0  0  0  0
   -3.0117  -12.3578   25.7710 C   0  0  0  0  0  0  0  0  0  0  0  0
   -2.3267  -11.3254   25.3755 C   0  0  0  0  0  0  0  0  0  0  0  0
   -2.7294   -9.9614   24.1134 C   0  0  0  0  0  0  0  0  0  0  0  0
   -2.0939   -9.0502   22.6968 C   0  0  0  0  0  0  0  0  0  0  0  0
   -0.7227   -8.4187   22.4783 N   0  0  0  0  0  0  0  0  0  0  0  0
   -0.3450   -7.1062   21.9459 C   0  0  0  0  0  0  0  0  0  0  0  0
   -1.0230   -6.1692   21.6234 O   0  0  0  0  0  0  0  0  0  0  0  0
    1.2084   -6.8677   21.6194 C   0  0  0  0  0  0  0  0  0  0  0  0
    1.8750   -7.8573   20.7071 C   0  0  0  0  0  0  0  0  0  0  0  0
    3.1100   -7.5680   20.2625 C   0  0  0  0  0  0  0  0  0  0  0  0
    3.7165   -6.3949   20.6664 N   0  0  0  0  0  0  0  0  0  0  0  0
    4.9534   -5.8891   20.3524 C   0  0  0  0  0  0  0  0  0  0  0  0
    5.0336   -4.7079   21.0457 C   0  0  0  0  0  0  0  0  0  0  0  0
    3.8845   -4.4771   21.7591 N   0  0  0  0  0  0  0  0  0  0  0  0
    3.0839   -5.5068   21.5336 C   0  0  0  0  0  0  0  0  0  0  0  0
    1.8092   -5.7571   22.0040 N   0  0  0  0  0  0  0  0  0  0  0  0
   -3.8829  -10.6631   23.7601 N   0  0  0  0  0  0  0  0  0  0  0  0
   -8.1478  -15.6859   26.4412 H   0  0  0  0  0  0  0  0  0  0  0  0
   -7.7681  -15.1781   24.7629 H   0  0  0  0  0  0  0  0  0  0  0  0
   -9.1005  -14.5554   25.7562 H   0  0  0  0  0  0  0  0  0  0  0  0
   -6.1810  -13.6961   26.8963 H   0  0  0  0  0  0  0  0  0  0  0  0
   -8.2754  -14.1812   27.9641 H   0  0  0  0  0  0  0  0  0  0  0  0
   -7.3286  -12.9483   28.5131 H   0  0  0  0  0  0  0  0  0  0  0  0
   -8.8109  -12.6209   27.4646 H   0  0  0  0  0  0  0  0  0  0  0  0
   -3.4048  -12.4630   26.7609 H   0  0  0  0  0  0  0  0  0  0  0  0
   -2.3137  -10.8399   26.3758 H   0  0  0  0  0  0  0  0  0  0  0  0
   -2.8348   -8.2822   22.4543 H   0  0  0  0  0  0  0  0  0  0  0  0
   -2.1913   -9.7203   21.8269 H   0  0  0  0  0  0  0  0  0  0  0  0
    0.1134   -8.9982   22.5608 H   0  0  0  0  0  0  0  0  0  0  0  0
    1.3310   -8.7448   20.4299 H   0  0  0  0  0  0  0  0  0  0  0  0
    3.6540   -8.2207   19.5938 H   0  0  0  0  0  0  0  0  0  0  0  0
    5.6363   -6.3981   19.6909 H   0  0  0  0  0  0  0  0  0  0  0  0
    5.8515   -4.0047   21.0822 H   0  0  0  0  0  0  0  0  0  0  0  0
  1  2  1  0
  2  3  1  0
  2  4  1  0
  4  5  1  0
  5  6  2  0
  6  7  1  0
  7  8  2  0
  8  9  1  0
  9 10  1  0
 10 11  1  0
 11 12  1  0
 12 13  2  0
 12 14  1  0
 14 15  1  0
 15 16  2  0
 16 17  1  0
 17 18  1  0
 18 19  2  0
 19 20  1  0
 20 21  2  0
 21 22  1  0
  9 23  2  0
 23  5  1  0
 22 14  2  0
 21 17  1  0
  1 24  1  0
  1 25  1  0
  1 26  1  0
  2 27  1  0
  3 28  1  0
  3 29  1  0
  3 30  1  0
  7 31  1  0
  8 32  1  0
 10 33  1  0
 10 34  1  0
 11 35  1  0
 15 36  1  0
 16 37  1  0
 18 38  1  0
 19 39  1  0
M  END
>  <Energy>  (1224) 
600.09851851215035

>  <compound_id>  (1224) 
81084

>  <target_id>  (1224) 
1

>  <reference_id>  (1224) 
106

>  <inspiration_ids>  (1224) 
[54, 106]

>  <energy_score>  (1224) 
551.5727653863521

>  <distance_score>  (1224) 
13.543342481181547

>  <path>  (1224) 
/opt/xchem-fragalysis-2/maxwin/BulkDock/SCRATCH/511024/C81084-P106/C81084-P106.minimised.mol

>  <scratch_subdir>  (1224) 
/opt/xchem-fragalysis-2/maxwin/BulkDock/SCRATCH/511024/C81084-P106

>  <fragmenstein_runtime>  (1224) 
29.662919282913208

>  <fragmenstein_outcome>  (1224) 
too moved

>  <fragmenstein_mode>  (1224) 
expansion

>  <fragmenstein_error>  (1224) 


$$$$
C81097-P54
     RDKit          3D

 46 49  0  0  0  0  0  0  0  0999 V2000
    3.0938  -15.1260   25.1450 O   0  0  0  0  0  0  0  0  0  0  0  0
    2.6179  -14.1255   25.5956 C   0  0  0  0  0  0  0  0  0  0  0  0
    1.1864  -14.2824   26.8213 N   0  0  0  0  0  0  0  0  0  0  0  0
    0.3134  -15.8943   27.6830 C   0  0  0  0  0  0  0  0  0  0  0  0
   -0.6883  -17.7492   27.5511 C   0  0  0  0  0  0  0  0  0  0  0  0
   -1.1613  -19.3252   28.1662 N   0  0  0  0  0  0  0  0  0  0  0  0
   -2.0001  -19.5602   29.3309 C   0  0  0  0  0  0  0  0  0  0  0  0
   -3.2345  -20.6711   29.1457 C   0  0  0  0  0  0  0  0  0  0  0  0
   -4.2755  -20.6306   27.8632 N   0  0  0  0  0  0  0  0  0  0  0  0
   -5.8600  -21.1823   27.9777 C   0  0  0  0  0  0  0  0  0  0  0  0
   -7.0608  -20.7188   27.5462 N   0  0  0  0  0  0  0  0  0  0  0  0
   -8.4694  -21.4715   27.9717 C   0  0  0  0  0  0  0  0  0  0  0  0
   -8.7610  -22.6033   28.6643 C   0  0  0  0  0  0  0  0  0  0  0  0
   -7.5877  -22.7734   29.2970 C   0  0  0  0  0  0  0  0  0  0  0  0
   -6.2256  -22.0681   29.0060 N   0  0  0  0  0  0  0  0  0  0  0  0
   -3.2729  -20.9829   26.7449 C   0  0  0  0  0  0  0  0  0  0  0  0
   -1.6002  -20.5687   27.2607 C   0  0  0  0  0  0  0  0  0  0  0  0
    3.4900  -12.4727   24.6706 C   0  0  0  0  0  0  0  0  0  0  0  0
    4.0052  -12.5664   22.8672 C   0  0  0  0  0  0  0  0  0  0  0  0
    4.8501  -11.7515   22.1712 C   0  0  0  0  0  0  0  0  0  0  0  0
    5.4129  -10.6503   22.7751 N   0  0  0  0  0  0  0  0  0  0  0  0
    6.3412   -9.7429   22.3209 C   0  0  0  0  0  0  0  0  0  0  0  0
    6.4313   -8.8063   23.3196 C   0  0  0  0  0  0  0  0  0  0  0  0
    5.6025   -9.1337   24.3722 N   0  0  0  0  0  0  0  0  0  0  0  0
    5.0252  -10.3002   24.0747 C   0  0  0  0  0  0  0  0  0  0  0  0
    4.0671  -11.1748   24.8869 N   0  0  0  0  0  0  0  0  0  0  0  0
    0.9594  -13.3711   27.1657 H   0  0  0  0  0  0  0  0  0  0  0  0
    0.2575  -15.6239   28.7471 H   0  0  0  0  0  0  0  0  0  0  0  0
   -0.3748  -15.6970   26.7750 H   0  0  0  0  0  0  0  0  0  0  0  0
   -1.3334  -17.6950   26.6549 H   0  0  0  0  0  0  0  0  0  0  0  0
   -0.1075  -18.4559   26.9904 H   0  0  0  0  0  0  0  0  0  0  0  0
   -2.2397  -18.6592   29.8934 H   0  0  0  0  0  0  0  0  0  0  0  0
   -1.3395  -20.0683   30.0514 H   0  0  0  0  0  0  0  0  0  0  0  0
   -3.6341  -20.5836   30.1327 H   0  0  0  0  0  0  0  0  0  0  0  0
   -2.8002  -21.6749   29.0986 H   0  0  0  0  0  0  0  0  0  0  0  0
   -9.3430  -20.7803   28.0244 H   0  0  0  0  0  0  0  0  0  0  0  0
   -9.7232  -22.9517   28.9839 H   0  0  0  0  0  0  0  0  0  0  0  0
   -7.6705  -23.3169   30.2184 H   0  0  0  0  0  0  0  0  0  0  0  0
   -3.2162  -22.0490   26.5453 H   0  0  0  0  0  0  0  0  0  0  0  0
   -3.5029  -20.4545   25.8149 H   0  0  0  0  0  0  0  0  0  0  0  0
   -0.8667  -20.8953   26.5238 H   0  0  0  0  0  0  0  0  0  0  0  0
   -1.3472  -21.4171   27.9206 H   0  0  0  0  0  0  0  0  0  0  0  0
    3.8968  -13.4571   22.2743 H   0  0  0  0  0  0  0  0  0  0  0  0
    5.1668  -11.9739   21.1600 H   0  0  0  0  0  0  0  0  0  0  0  0
    6.8170   -9.8384   21.3571 H   0  0  0  0  0  0  0  0  0  0  0  0
    7.0417   -7.9134   23.3514 H   0  0  0  0  0  0  0  0  0  0  0  0
  1  2  2  0
  2  3  1  0
  3  4  1  0
  4  5  1  0
  5  6  1  0
  6  7  1  0
  7  8  1  0
  8  9  1  0
  9 10  1  0
 10 11  2  0
 11 12  1  0
 12 13  2  0
 13 14  1  0
 14 15  2  0
  9 16  1  0
 16 17  1  0
  2 18  1  0
 18 19  1  0
 19 20  2  0
 20 21  1  0
 21 22  1  0
 22 23  2  0
 23 24  1  0
 24 25  2  0
 25 26  1  0
 17  6  1  0
 26 18  2  0
 15 10  1  0
 25 21  1  0
  3 27  1  0
  4 28  1  0
  4 29  1  0
  5 30  1  0
  5 31  1  0
  7 32  1  0
  7 33  1  0
  8 34  1  0
  8 35  1  0
 12 36  1  0
 13 37  1  0
 14 38  1  0
 16 39  1  0
 16 40  1  0
 17 41  1  0
 17 42  1  0
 19 43  1  0
 20 44  1  0
 22 45  1  0
 23 46  1  0
M  END
>  <Energy>  (1225) 
876.93594624505943

>  <compound_id>  (1225) 
81097

>  <target_id>  (1225) 
1

>  <reference_id>  (1225) 
54

>  <inspiration_ids>  (1225) 
[54, 106]

>  <energy_score>  (1225) 
775.1100557178721

>  <distance_score>  (1225) 
11.706929352907663

>  <path>  (1225) 
/opt/xchem-fragalysis-2/maxwin/BulkDock/SCRATCH/511024/C81097-P54/C81097-P54.minimised.mol

>  <scratch_subdir>  (1225) 
/opt/xchem-fragalysis-2/maxwin/BulkDock/SCRATCH/511024/C81097-P54

>  <fragmenstein_runtime>  (1225) 
30.36736512184143

>  <fragmenstein_outcome>  (1225) 
too moved

>  <fragmenstein_mode>  (1225) 
expansion

>  <fragmenstein_error>  (1225) 


$$$$
C81097-P106
     RDKit          3D

 46 49  0  0  0  0  0  0  0  0999 V2000
    4.8498  -11.5270   28.3683 O   0  0  0  0  0  0  0  0  0  0  0  0
    4.3191  -10.4368   28.2422 C   0  0  0  0  0  0  0  0  0  0  0  0
    2.5600  -10.1612   27.9351 N   0  0  0  0  0  0  0  0  0  0  0  0
    1.1535  -11.3573   27.5958 C   0  0  0  0  0  0  0  0  0  0  0  0
    0.4747  -13.2837   26.8904 C   0  0  0  0  0  0  0  0  0  0  0  0
   -0.7941  -14.6529   27.8288 N   0  0  0  0  0  0  0  0  0  0  0  0
   -1.8796  -14.6713   29.2546 C   0  0  0  0  0  0  0  0  0  0  0  0
   -3.0168  -15.6390   29.9113 C   0  0  0  0  0  0  0  0  0  0  0  0
   -3.8038  -16.6320   29.1968 N   0  0  0  0  0  0  0  0  0  0  0  0
   -4.2947  -17.5476   30.1670 C   0  0  0  0  0  0  0  0  0  0  0  0
   -5.3586  -17.1878   30.8617 N   0  0  0  0  0  0  0  0  0  0  0  0
   -5.5840  -17.6665   32.1053 C   0  0  0  0  0  0  0  0  0  0  0  0
   -4.6762  -18.3576   32.8024 C   0  0  0  0  0  0  0  0  0  0  0  0
   -3.6100  -18.7039   32.0513 C   0  0  0  0  0  0  0  0  0  0  0  0
   -3.4877  -18.4433   30.7377 N   0  0  0  0  0  0  0  0  0  0  0  0
   -3.0974  -16.8588   27.8949 C   0  0  0  0  0  0  0  0  0  0  0  0
   -1.9736  -15.5850   27.3757 C   0  0  0  0  0  0  0  0  0  0  0  0
    5.4598   -9.2706   28.2285 C   0  0  0  0  0  0  0  0  0  0  0  0
    6.8068   -9.4991   28.8923 C   0  0  0  0  0  0  0  0  0  0  0  0
    7.8878   -8.8879   28.3523 C   0  0  0  0  0  0  0  0  0  0  0  0
    7.7531   -8.0533   27.2471 N   0  0  0  0  0  0  0  0  0  0  0  0
    8.6799   -7.3718   26.4940 C   0  0  0  0  0  0  0  0  0  0  0  0
    7.9531   -6.7183   25.5249 C   0  0  0  0  0  0  0  0  0  0  0  0
    6.6118   -6.9754   25.6754 N   0  0  0  0  0  0  0  0  0  0  0  0
    6.5083   -7.8000   26.7033 C   0  0  0  0  0  0  0  0  0  0  0  0
    5.4011   -8.4396   27.1998 N   0  0  0  0  0  0  0  0  0  0  0  0
    2.3620   -9.1606   27.9601 H   0  0  0  0  0  0  0  0  0  0  0  0
    0.3727  -10.5984   27.4159 H   0  0  0  0  0  0  0  0  0  0  0  0
    0.9151  -11.2445   28.6858 H   0  0  0  0  0  0  0  0  0  0  0  0
   -0.0930  -13.1783   26.0117 H   0  0  0  0  0  0  0  0  0  0  0  0
    1.3834  -13.7619   26.4781 H   0  0  0  0  0  0  0  0  0  0  0  0
   -1.0761  -14.8367   30.0315 H   0  0  0  0  0  0  0  0  0  0  0  0
   -2.4411  -13.7348   29.3506 H   0  0  0  0  0  0  0  0  0  0  0  0
   -3.6606  -14.8334   30.0720 H   0  0  0  0  0  0  0  0  0  0  0  0
   -2.6621  -15.9798   30.8982 H   0  0  0  0  0  0  0  0  0  0  0  0
   -6.5145  -17.4059   32.5900 H   0  0  0  0  0  0  0  0  0  0  0  0
   -4.8161  -18.5841   33.8400 H   0  0  0  0  0  0  0  0  0  0  0  0
   -2.7532  -19.1916   32.4974 H   0  0  0  0  0  0  0  0  0  0  0  0
   -2.6444  -17.8504   27.6498 H   0  0  0  0  0  0  0  0  0  0  0  0
   -3.8336  -17.0003   27.2024 H   0  0  0  0  0  0  0  0  0  0  0  0
   -1.3942  -16.5085   27.4433 H   0  0  0  0  0  0  0  0  0  0  0  0
   -2.1542  -15.0986   26.4036 H   0  0  0  0  0  0  0  0  0  0  0  0
    6.8594  -10.2207   29.6993 H   0  0  0  0  0  0  0  0  0  0  0  0
    8.8918   -9.0473   28.7271 H   0  0  0  0  0  0  0  0  0  0  0  0
    9.7387   -7.4157   26.7038 H   0  0  0  0  0  0  0  0  0  0  0  0
    8.3189   -6.0768   24.7332 H   0  0  0  0  0  0  0  0  0  0  0  0
  1  2  2  0
  2  3  1  0
  3  4  1  0
  4  5  1  0
  5  6  1  0
  6  7  1  0
  7  8  1  0
  8  9  1  0
  9 10  1  0
 10 11  2  0
 11 12  1  0
 12 13  2  0
 13 14  1  0
 14 15  2  0
  9 16  1  0
 16 17  1  0
  2 18  1  0
 18 19  1  0
 19 20  2  0
 20 21  1  0
 21 22  1  0
 22 23  2  0
 23 24  1  0
 24 25  2  0
 25 26  1  0
 17  6  1  0
 26 18  2  0
 15 10  1  0
 25 21  1  0
  3 27  1  0
  4 28  1  0
  4 29  1  0
  5 30  1  0
  5 31  1  0
  7 32  1  0
  7 33  1  0
  8 34  1  0
  8 35  1  0
 12 36  1  0
 13 37  1  0
 14 38  1  0
 16 39  1  0
 16 40  1  0
 17 41  1  0
 17 42  1  0
 19 43  1  0
 20 44  1  0
 22 45  1  0
 23 46  1  0
M  END
>  <Energy>  (1226) 
696.98056268622645

>  <compound_id>  (1226) 
81097

>  <target_id>  (1226) 
1

>  <reference_id>  (1226) 
106

>  <inspiration_ids>  (1226) 
[54, 106]

>  <energy_score>  (1226) 
595.1546721590362

>  <distance_score>  (1226) 
12.715984191923924

>  <path>  (1226) 
/opt/xchem-fragalysis-2/maxwin/BulkDock/SCRATCH/511024/C81097-P106/C81097-P106.minimised.mol

>  <scratch_subdir>  (1226) 
/opt/xchem-fragalysis-2/maxwin/BulkDock/SCRATCH/511024/C81097-P106

>  <fragmenstein_runtime>  (1226) 
27.35889720916748

>  <fragmenstein_outcome>  (1226) 
too moved

>  <fragmenstein_mode>  (1226) 
expansion

>  <fragmenstein_error>  (1226) 


$$$$
C81091-P54
     RDKit          3D

 38 40  0  0  0  0  0  0  0  0999 V2000
   -8.3756  -11.3832   22.4630 C   0  0  0  0  0  0  0  0  0  0  0  0
   -8.8948  -11.9438   21.2286 N   0  0  0  0  0  0  0  0  0  0  0  0
  -10.1240  -12.7280   21.3543 C   0  0  0  0  0  0  0  0  0  0  0  0
   -8.5382  -11.3809   19.9815 C   0  0  0  0  0  0  0  0  0  0  0  0
   -9.1142  -11.8795   18.8890 N   0  0  0  0  0  0  0  0  0  0  0  0
   -8.6199  -11.4662   17.6839 C   0  0  0  0  0  0  0  0  0  0  0  0
   -7.5330  -10.6082   17.4535 C   0  0  0  0  0  0  0  0  0  0  0  0
   -6.9192  -10.0945   18.5639 C   0  0  0  0  0  0  0  0  0  0  0  0
   -5.3073   -9.4275   18.4128 C   0  0  0  0  0  0  0  0  0  0  0  0
   -4.7553   -8.1712   17.6138 N   0  0  0  0  0  0  0  0  0  0  0  0
   -5.7242   -7.0767   17.6210 C   0  0  0  0  0  0  0  0  0  0  0  0
   -3.3201   -7.7741   17.5671 C   0  0  0  0  0  0  0  0  0  0  0  0
   -2.2145   -8.8231   17.6553 C   0  0  0  0  0  0  0  0  0  0  0  0
   -0.9277   -8.4479   17.5368 C   0  0  0  0  0  0  0  0  0  0  0  0
   -0.6129   -7.1170   17.3690 N   0  0  0  0  0  0  0  0  0  0  0  0
    0.6100   -6.5008   17.2363 C   0  0  0  0  0  0  0  0  0  0  0  0
    0.3197   -5.1691   17.0827 C   0  0  0  0  0  0  0  0  0  0  0  0
   -1.0422   -4.9621   17.1250 N   0  0  0  0  0  0  0  0  0  0  0  0
   -1.6082   -6.1515   17.2989 C   0  0  0  0  0  0  0  0  0  0  0  0
   -2.9513   -6.5010   17.3914 N   0  0  0  0  0  0  0  0  0  0  0  0
   -7.4861  -10.5146   19.8179 N   0  0  0  0  0  0  0  0  0  0  0  0
   -8.8313  -10.4080   22.6615 H   0  0  0  0  0  0  0  0  0  0  0  0
   -8.5742  -12.0376   23.3184 H   0  0  0  0  0  0  0  0  0  0  0  0
   -7.2961  -11.2644   22.3963 H   0  0  0  0  0  0  0  0  0  0  0  0
  -10.9934  -12.0625   21.3783 H   0  0  0  0  0  0  0  0  0  0  0  0
  -10.2507  -13.4354   20.5278 H   0  0  0  0  0  0  0  0  0  0  0  0
  -10.1190  -13.3187   22.2769 H   0  0  0  0  0  0  0  0  0  0  0  0
   -9.1396  -11.8989   16.8297 H   0  0  0  0  0  0  0  0  0  0  0  0
   -7.1709  -10.4113   16.4532 H   0  0  0  0  0  0  0  0  0  0  0  0
   -4.9616   -9.2088   19.4154 H   0  0  0  0  0  0  0  0  0  0  0  0
   -4.7478  -10.2817   18.0143 H   0  0  0  0  0  0  0  0  0  0  0  0
   -6.7373   -7.4505   17.4437 H   0  0  0  0  0  0  0  0  0  0  0  0
   -5.7102   -6.5526   18.5805 H   0  0  0  0  0  0  0  0  0  0  0  0
   -5.5086   -6.3600   16.8219 H   0  0  0  0  0  0  0  0  0  0  0  0
   -2.5067   -9.8537   17.7837 H   0  0  0  0  0  0  0  0  0  0  0  0
   -0.1001   -9.1418   17.5861 H   0  0  0  0  0  0  0  0  0  0  0  0
    1.5359   -7.0551   17.2696 H   0  0  0  0  0  0  0  0  0  0  0  0
    1.0066   -4.3444   16.9475 H   0  0  0  0  0  0  0  0  0  0  0  0
  1  2  1  0
  2  3  1  0
  2  4  1  0
  4  5  2  0
  5  6  1  0
  6  7  2  0
  7  8  1  0
  8  9  1  0
  9 10  1  0
 10 11  1  0
 10 12  1  0
 12 13  1  0
 13 14  2  0
 14 15  1  0
 15 16  1  0
 16 17  2  0
 17 18  1  0
 18 19  2  0
 19 20  1  0
  8 21  2  0
 21  4  1  0
 20 12  2  0
 19 15  1  0
  1 22  1  0
  1 23  1  0
  1 24  1  0
  3 25  1  0
  3 26  1  0
  3 27  1  0
  6 28  1  0
  7 29  1  0
  9 30  1  0
  9 31  1  0
 11 32  1  0
 11 33  1  0
 11 34  1  0
 13 35  1  0
 14 36  1  0
 16 37  1  0
 17 38  1  0
M  END
>  <Energy>  (1227) 
-8.4096114809054185

>  <compound_id>  (1227) 
81091

>  <target_id>  (1227) 
1

>  <reference_id>  (1227) 
54

>  <inspiration_ids>  (1227) 
[54, 106]

>  <energy_score>  (1227) 
6.043516702203391

>  <distance_score>  (1227) 
16.222132547434512

>  <path>  (1227) 
/opt/xchem-fragalysis-2/maxwin/BulkDock/SCRATCH/511024/C81091-P54/C81091-P54.minimised.mol

>  <scratch_subdir>  (1227) 
/opt/xchem-fragalysis-2/maxwin/BulkDock/SCRATCH/511024/C81091-P54

>  <fragmenstein_runtime>  (1227) 
12.67392635345459

>  <fragmenstein_outcome>  (1227) 
too moved

>  <fragmenstein_mode>  (1227) 
expansion

>  <fragmenstein_error>  (1227) 


$$$$
C81091-P106
     RDKit          3D

 38 40  0  0  0  0  0  0  0  0999 V2000
   -2.6106  -17.1680   27.4261 C   0  0  0  0  0  0  0  0  0  0  0  0
   -2.0855  -15.7146   27.5091 N   0  0  0  0  0  0  0  0  0  0  0  0
   -1.6426  -15.5122   28.8773 C   0  0  0  0  0  0  0  0  0  0  0  0
   -2.1216  -14.8503   26.0860 C   0  0  0  0  0  0  0  0  0  0  0  0
   -2.6444  -15.6741   25.1955 N   0  0  0  0  0  0  0  0  0  0  0  0
   -2.3288  -15.3493   24.0367 C   0  0  0  0  0  0  0  0  0  0  0  0
   -1.1074  -14.7963   23.5398 C   0  0  0  0  0  0  0  0  0  0  0  0
   -0.2409  -14.2059   24.3674 C   0  0  0  0  0  0  0  0  0  0  0  0
    1.5987  -13.3257   24.2728 C   0  0  0  0  0  0  0  0  0  0  0  0
    3.3064  -13.3022   23.5713 N   0  0  0  0  0  0  0  0  0  0  0  0
    4.2603  -14.2827   24.1494 C   0  0  0  0  0  0  0  0  0  0  0  0
    4.1179  -12.3671   22.7231 C   0  0  0  0  0  0  0  0  0  0  0  0
    5.0493  -13.0302   21.6563 C   0  0  0  0  0  0  0  0  0  0  0  0
    5.9663  -12.3022   20.9927 C   0  0  0  0  0  0  0  0  0  0  0  0
    6.0502  -10.9461   21.2299 N   0  0  0  0  0  0  0  0  0  0  0  0
    6.8695   -9.9929   20.6728 C   0  0  0  0  0  0  0  0  0  0  0  0
    6.4923   -8.8142   21.2664 C   0  0  0  0  0  0  0  0  0  0  0  0
    5.4790   -9.0308   22.1698 N   0  0  0  0  0  0  0  0  0  0  0  0
    5.1972  -10.3275   22.1309 C   0  0  0  0  0  0  0  0  0  0  0  0
    4.2529  -11.0638   22.8368 N   0  0  0  0  0  0  0  0  0  0  0  0
   -1.3052  -13.8394   25.4421 N   0  0  0  0  0  0  0  0  0  0  0  0
   -2.7710  -17.5603   26.4217 H   0  0  0  0  0  0  0  0  0  0  0  0
   -3.5375  -17.2605   28.0032 H   0  0  0  0  0  0  0  0  0  0  0  0
   -1.8632  -17.8366   27.8723 H   0  0  0  0  0  0  0  0  0  0  0  0
   -1.8136  -16.4141   29.4843 H   0  0  0  0  0  0  0  0  0  0  0  0
   -2.2336  -14.7791   29.4204 H   0  0  0  0  0  0  0  0  0  0  0  0
   -0.5628  -15.3904   28.9516 H   0  0  0  0  0  0  0  0  0  0  0  0
   -3.1859  -15.3229   23.4212 H   0  0  0  0  0  0  0  0  0  0  0  0
   -0.8762  -14.8286   22.4761 H   0  0  0  0  0  0  0  0  0  0  0  0
    1.7296  -13.2716   25.3714 H   0  0  0  0  0  0  0  0  0  0  0  0
    1.5463  -14.2608   23.6001 H   0  0  0  0  0  0  0  0  0  0  0  0
    5.2974  -13.9256   24.0824 H   0  0  0  0  0  0  0  0  0  0  0  0
    4.1399  -14.4467   25.2186 H   0  0  0  0  0  0  0  0  0  0  0  0
    4.2249  -15.2136   23.5771 H   0  0  0  0  0  0  0  0  0  0  0  0
    4.9056  -14.0887   21.4843 H   0  0  0  0  0  0  0  0  0  0  0  0
    6.6333  -12.7262   20.2544 H   0  0  0  0  0  0  0  0  0  0  0  0
    7.6171  -10.2343   19.9322 H   0  0  0  0  0  0  0  0  0  0  0  0
    6.8921   -7.8221   21.1060 H   0  0  0  0  0  0  0  0  0  0  0  0
  1  2  1  0
  2  3  1  0
  2  4  1  0
  4  5  2  0
  5  6  1  0
  6  7  2  0
  7  8  1  0
  8  9  1  0
  9 10  1  0
 10 11  1  0
 10 12  1  0
 12 13  1  0
 13 14  2  0
 14 15  1  0
 15 16  1  0
 16 17  2  0
 17 18  1  0
 18 19  2  0
 19 20  1  0
  8 21  2  0
 21  4  1  0
 20 12  2  0
 19 15  1  0
  1 22  1  0
  1 23  1  0
  1 24  1  0
  3 25  1  0
  3 26  1  0
  3 27  1  0
  6 28  1  0
  7 29  1  0
  9 30  1  0
  9 31  1  0
 11 32  1  0
 11 33  1  0
 11 34  1  0
 13 35  1  0
 14 36  1  0
 16 37  1  0
 17 38  1  0
M  END
>  <Energy>  (1228) 
336.95061577193002

>  <compound_id>  (1228) 
81091

>  <target_id>  (1228) 
1

>  <reference_id>  (1228) 
106

>  <inspiration_ids>  (1228) 
[54, 106]

>  <energy_score>  (1228) 
351.40374395503454

>  <distance_score>  (1228) 
13.606532959690329

>  <path>  (1228) 
/opt/xchem-fragalysis-2/maxwin/BulkDock/SCRATCH/511024/C81091-P106/C81091-P106.minimised.mol

>  <scratch_subdir>  (1228) 
/opt/xchem-fragalysis-2/maxwin/BulkDock/SCRATCH/511024/C81091-P106

>  <fragmenstein_runtime>  (1228) 
17.650553226470947

>  <fragmenstein_outcome>  (1228) 
too moved

>  <fragmenstein_mode>  (1228) 
expansion

>  <fragmenstein_error>  (1228) 


$$$$
C81099-P54
     RDKit          3D

 36 39  0  0  0  0  0  0  0  0999 V2000
   -2.9506  -19.6340   23.1346 Cl  0  0  0  0  0  0  0  0  0  0  0  0
   -3.8256  -17.8955   23.8922 C   0  0  0  0  0  0  0  0  0  0  0  0
   -2.7610  -16.1150   23.9210 C   0  0  0  0  0  0  0  0  0  0  0  0
   -3.1214  -14.3769   23.0410 C   0  0  0  0  0  0  0  0  0  0  0  0
   -1.6202  -13.0219   22.7310 N   0  0  0  0  0  0  0  0  0  0  0  0
   -0.2298  -12.6306   21.4404 C   0  0  0  0  0  0  0  0  0  0  0  0
    1.8112  -12.0535   21.2210 C   0  0  0  0  0  0  0  0  0  0  0  0
    2.9496  -11.6674   22.5441 N   0  0  0  0  0  0  0  0  0  0  0  0
    4.6263  -10.7956   22.8407 C   0  0  0  0  0  0  0  0  0  0  0  0
    4.9948  -10.2354   24.0720 C   0  0  0  0  0  0  0  0  0  0  0  0
    5.6968   -8.8921   24.2960 C   0  0  0  0  0  0  0  0  0  0  0  0
    6.1164   -8.0424   23.4227 N   0  0  0  0  0  0  0  0  0  0  0  0
    6.1346   -8.5388   22.1700 C   0  0  0  0  0  0  0  0  0  0  0  0
    6.7311   -8.0372   21.0992 N   0  0  0  0  0  0  0  0  0  0  0  0
    7.4467   -9.1091   20.7036 C   0  0  0  0  0  0  0  0  0  0  0  0
    7.0550  -10.1825   21.4772 C   0  0  0  0  0  0  0  0  0  0  0  0
    5.7028   -9.9082   21.8865 N   0  0  0  0  0  0  0  0  0  0  0  0
    1.1490  -10.9722   22.7118 C   0  0  0  0  0  0  0  0  0  0  0  0
   -0.0509  -11.7546   23.2637 C   0  0  0  0  0  0  0  0  0  0  0  0
   -5.0066  -14.5674   22.4810 N   0  0  0  0  0  0  0  0  0  0  0  0
   -6.1634  -16.2852   22.4519 C   0  0  0  0  0  0  0  0  0  0  0  0
   -5.5179  -17.8405   23.1695 N   0  0  0  0  0  0  0  0  0  0  0  0
   -1.8783  -16.1872   24.5748 H   0  0  0  0  0  0  0  0  0  0  0  0
   -0.7947  -13.0022   20.5433 H   0  0  0  0  0  0  0  0  0  0  0  0
    0.7263  -13.2530   21.4492 H   0  0  0  0  0  0  0  0  0  0  0  0
    2.3843  -12.8940   20.8135 H   0  0  0  0  0  0  0  0  0  0  0  0
    1.9881  -11.1678   20.5761 H   0  0  0  0  0  0  0  0  0  0  0  0
    4.4375  -10.5012   24.9491 H   0  0  0  0  0  0  0  0  0  0  0  0
    5.7195   -8.5799   25.3552 H   0  0  0  0  0  0  0  0  0  0  0  0
    8.3037   -9.0241   20.0487 H   0  0  0  0  0  0  0  0  0  0  0  0
    7.6013  -11.0688   21.7511 H   0  0  0  0  0  0  0  0  0  0  0  0
    1.0398  -10.3236   21.8208 H   0  0  0  0  0  0  0  0  0  0  0  0
    0.8593  -10.2248   23.5082 H   0  0  0  0  0  0  0  0  0  0  0  0
    0.2857  -12.6170   22.9839 H   0  0  0  0  0  0  0  0  0  0  0  0
    0.4391  -11.7298   24.3044 H   0  0  0  0  0  0  0  0  0  0  0  0
   -7.2518  -16.3248   22.2726 H   0  0  0  0  0  0  0  0  0  0  0  0
  1  2  1  0
  2  3  2  0
  3  4  1  0
  4  5  1  0
  5  6  1  0
  6  7  1  0
  7  8  1  0
  8  9  1  0
  9 10  2  0
 10 11  1  0
 11 12  2  0
 12 13  1  0
 13 14  2  0
 14 15  1  0
 15 16  2  0
 16 17  1  0
  8 18  1  0
 18 19  1  0
  4 20  2  0
 20 21  1  0
 21 22  2  0
 22  2  1  0
 19  5  1  0
 17  9  1  0
 17 13  1  0
  3 23  1  0
  6 24  1  0
  6 25  1  0
  7 26  1  0
  7 27  1  0
 10 28  1  0
 11 29  1  0
 15 30  1  0
 16 31  1  0
 18 32  1  0
 18 33  1  0
 19 34  1  0
 19 35  1  0
 21 36  1  0
M  END
>  <Energy>  (1229) 
2014.5924947795102

>  <compound_id>  (1229) 
81099

>  <target_id>  (1229) 
1

>  <reference_id>  (1229) 
54

>  <inspiration_ids>  (1229) 
[54, 106]

>  <energy_score>  (1229) 
1899.4167797760847

>  <distance_score>  (1229) 
12.714070021201922

>  <path>  (1229) 
/opt/xchem-fragalysis-2/maxwin/BulkDock/SCRATCH/511024/C81099-P54/C81099-P54.minimised.mol

>  <scratch_subdir>  (1229) 
/opt/xchem-fragalysis-2/maxwin/BulkDock/SCRATCH/511024/C81099-P54

>  <fragmenstein_runtime>  (1229) 
12.180627346038818

>  <fragmenstein_outcome>  (1229) 
too moved

>  <fragmenstein_mode>  (1229) 
expansion

>  <fragmenstein_error>  (1229) 


$$$$
C81099-P106
     RDKit          3D

 36 39  0  0  0  0  0  0  0  0999 V2000
    6.3927  -16.0281   29.1145 Cl  0  0  0  0  0  0  0  0  0  0  0  0
    5.4701  -16.4817   27.7316 C   0  0  0  0  0  0  0  0  0  0  0  0
    5.6082  -15.7472   26.5521 C   0  0  0  0  0  0  0  0  0  0  0  0
    4.8165  -16.0955   25.4809 C   0  0  0  0  0  0  0  0  0  0  0  0
    4.5494  -15.1049   24.3770 N   0  0  0  0  0  0  0  0  0  0  0  0
    3.4561  -14.7871   23.0402 C   0  0  0  0  0  0  0  0  0  0  0  0
    3.5598  -13.2677   21.6424 C   0  0  0  0  0  0  0  0  0  0  0  0
    3.8624  -11.9079   22.4102 N   0  0  0  0  0  0  0  0  0  0  0  0
    5.3598  -10.8735   22.1832 C   0  0  0  0  0  0  0  0  0  0  0  0
    5.9217   -9.9220   23.0102 C   0  0  0  0  0  0  0  0  0  0  0  0
    7.1384   -9.1180   22.6647 C   0  0  0  0  0  0  0  0  0  0  0  0
    7.8540   -9.1973   21.6050 N   0  0  0  0  0  0  0  0  0  0  0  0
    7.4651  -10.1522   20.7278 C   0  0  0  0  0  0  0  0  0  0  0  0
    8.0247  -10.3540   19.5544 N   0  0  0  0  0  0  0  0  0  0  0  0
    7.3624  -11.4005   19.0085 C   0  0  0  0  0  0  0  0  0  0  0  0
    6.3795  -11.8615   19.8528 C   0  0  0  0  0  0  0  0  0  0  0  0
    6.3418  -11.0276   20.9540 N   0  0  0  0  0  0  0  0  0  0  0  0
    3.2027  -12.8173   23.8484 C   0  0  0  0  0  0  0  0  0  0  0  0
    4.0540  -14.0003   25.0767 C   0  0  0  0  0  0  0  0  0  0  0  0
    4.1715  -17.2929   25.6573 N   0  0  0  0  0  0  0  0  0  0  0  0
    4.0450  -17.9135   26.8545 C   0  0  0  0  0  0  0  0  0  0  0  0
    4.6569  -17.5259   27.9474 N   0  0  0  0  0  0  0  0  0  0  0  0
    6.2701  -14.8920   26.5258 H   0  0  0  0  0  0  0  0  0  0  0  0
    2.4544  -14.6891   23.3424 H   0  0  0  0  0  0  0  0  0  0  0  0
    3.6872  -15.7773   22.8634 H   0  0  0  0  0  0  0  0  0  0  0  0
    4.4445  -13.2125   20.9851 H   0  0  0  0  0  0  0  0  0  0  0  0
    2.9624  -13.5502   20.8152 H   0  0  0  0  0  0  0  0  0  0  0  0
    5.5327   -9.4869   23.8921 H   0  0  0  0  0  0  0  0  0  0  0  0
    7.4147   -8.3648   23.4231 H   0  0  0  0  0  0  0  0  0  0  0  0
    7.6189  -11.7831   18.0288 H   0  0  0  0  0  0  0  0  0  0  0  0
    5.6742  -12.6538   19.6868 H   0  0  0  0  0  0  0  0  0  0  0  0
    2.2736  -12.3575   24.1590 H   0  0  0  0  0  0  0  0  0  0  0  0
    4.0251  -12.4923   24.3094 H   0  0  0  0  0  0  0  0  0  0  0  0
    3.4513  -14.1881   25.9560 H   0  0  0  0  0  0  0  0  0  0  0  0
    4.9627  -13.5678   25.5710 H   0  0  0  0  0  0  0  0  0  0  0  0
    3.4124  -18.7926   26.8934 H   0  0  0  0  0  0  0  0  0  0  0  0
  1  2  1  0
  2  3  2  0
  3  4  1  0
  4  5  1  0
  5  6  1  0
  6  7  1  0
  7  8  1  0
  8  9  1  0
  9 10  2  0
 10 11  1  0
 11 12  2  0
 12 13  1  0
 13 14  2  0
 14 15  1  0
 15 16  2  0
 16 17  1  0
  8 18  1  0
 18 19  1  0
  4 20  2  0
 20 21  1  0
 21 22  2  0
 22  2  1  0
 19  5  1  0
 17  9  1  0
 17 13  1  0
  3 23  1  0
  6 24  1  0
  6 25  1  0
  7 26  1  0
  7 27  1  0
 10 28  1  0
 11 29  1  0
 15 30  1  0
 16 31  1  0
 18 32  1  0
 18 33  1  0
 19 34  1  0
 19 35  1  0
 21 36  1  0
M  END
>  <Energy>  (1230) 
507.38450499626941

>  <compound_id>  (1230) 
81099

>  <target_id>  (1230) 
1

>  <reference_id>  (1230) 
106

>  <inspiration_ids>  (1230) 
[54, 106]

>  <energy_score>  (1230) 
392.2087899928297

>  <distance_score>  (1230) 
15.045709358067482

>  <path>  (1230) 
/opt/xchem-fragalysis-2/maxwin/BulkDock/SCRATCH/511024/C81099-P106/C81099-P106.minimised.mol

>  <scratch_subdir>  (1230) 
/opt/xchem-fragalysis-2/maxwin/BulkDock/SCRATCH/511024/C81099-P106

>  <fragmenstein_runtime>  (1230) 
15.421586990356445

>  <fragmenstein_outcome>  (1230) 
too moved

>  <fragmenstein_mode>  (1230) 
expansion

>  <fragmenstein_error>  (1230) 


$$$$
C81103-P54
     RDKit          3D

 34 36  0  0  0  0  0  0  0  0999 V2000
   -2.0957  -21.8247   22.8833 C   0  0  0  0  0  0  0  0  0  0  0  0
   -0.8180  -22.4574   22.8563 O   0  0  0  0  0  0  0  0  0  0  0  0
    0.1043  -21.8945   21.9700 C   0  0  0  0  0  0  0  0  0  0  0  0
    1.3551  -22.3916   22.0477 N   0  0  0  0  0  0  0  0  0  0  0  0
    2.3773  -21.7024   21.4112 C   0  0  0  0  0  0  0  0  0  0  0  0
    2.2439  -20.5086   20.7209 C   0  0  0  0  0  0  0  0  0  0  0  0
    3.3895  -19.4599   20.4003 C   0  0  0  0  0  0  0  0  0  0  0  0
    4.9843  -19.6230   19.7766 C   0  0  0  0  0  0  0  0  0  0  0  0
    5.7867  -18.2318   19.4604 N   0  0  0  0  0  0  0  0  0  0  0  0
    7.0993  -17.9104   18.8164 C   0  0  0  0  0  0  0  0  0  0  0  0
    8.2546  -18.3808   19.3313 C   0  0  0  0  0  0  0  0  0  0  0  0
    9.5485  -17.7732   18.8784 C   0  0  0  0  0  0  0  0  0  0  0  0
    9.7441  -16.8688   17.9754 N   0  0  0  0  0  0  0  0  0  0  0  0
    8.6186  -16.3937   17.3856 C   0  0  0  0  0  0  0  0  0  0  0  0
    8.5595  -15.4179   16.4912 N   0  0  0  0  0  0  0  0  0  0  0  0
    7.2415  -15.1685   16.2962 C   0  0  0  0  0  0  0  0  0  0  0  0
    6.4830  -15.9775   17.1046 C   0  0  0  0  0  0  0  0  0  0  0  0
    7.3233  -16.8530   17.7769 N   0  0  0  0  0  0  0  0  0  0  0  0
    0.8836  -20.1347   20.6721 C   0  0  0  0  0  0  0  0  0  0  0  0
   -0.1827  -20.7833   21.2829 N   0  0  0  0  0  0  0  0  0  0  0  0
   -2.0121  -20.7819   23.2028 H   0  0  0  0  0  0  0  0  0  0  0  0
   -2.7193  -22.3546   23.6092 H   0  0  0  0  0  0  0  0  0  0  0  0
   -2.5805  -21.8904   21.9037 H   0  0  0  0  0  0  0  0  0  0  0  0
    3.3608  -22.1327   21.5841 H   0  0  0  0  0  0  0  0  0  0  0  0
    3.5461  -18.9166   21.3410 H   0  0  0  0  0  0  0  0  0  0  0  0
    2.9042  -18.7441   19.7402 H   0  0  0  0  0  0  0  0  0  0  0  0
    4.9320  -20.2086   18.8552 H   0  0  0  0  0  0  0  0  0  0  0  0
    5.5756  -20.1881   20.5040 H   0  0  0  0  0  0  0  0  0  0  0  0
    5.0784  -17.6115   19.0426 H   0  0  0  0  0  0  0  0  0  0  0  0
    8.2892  -19.0829   20.1499 H   0  0  0  0  0  0  0  0  0  0  0  0
   10.4345  -18.1783   19.3963 H   0  0  0  0  0  0  0  0  0  0  0  0
    6.8998  -14.3817   15.6364 H   0  0  0  0  0  0  0  0  0  0  0  0
    5.4373  -15.9438   17.3278 H   0  0  0  0  0  0  0  0  0  0  0  0
    0.6007  -19.1819   20.2224 H   0  0  0  0  0  0  0  0  0  0  0  0
  1  2  1  0
  2  3  1  0
  3  4  2  0
  4  5  1  0
  5  6  2  0
  6  7  1  0
  7  8  1  0
  8  9  1  0
  9 10  1  0
 10 11  2  0
 11 12  1  0
 12 13  2  0
 13 14  1  0
 14 15  2  0
 15 16  1  0
 16 17  2  0
 17 18  1  0
  6 19  1  0
 19 20  2  0
 20  3  1  0
 18 10  1  0
 18 14  1  0
  1 21  1  0
  1 22  1  0
  1 23  1  0
  5 24  1  0
  7 25  1  0
  7 26  1  0
  8 27  1  0
  8 28  1  0
  9 29  1  0
 11 30  1  0
 12 31  1  0
 16 32  1  0
 17 33  1  0
 19 34  1  0
M  END
>  <Energy>  (1231) 
84.530500341742339

>  <compound_id>  (1231) 
81103

>  <target_id>  (1231) 
1

>  <reference_id>  (1231) 
54

>  <inspiration_ids>  (1231) 
[54, 106]

>  <energy_score>  (1231) 
31.729793457474727

>  <distance_score>  (1231) 
16.004112201370397

>  <path>  (1231) 
/opt/xchem-fragalysis-2/maxwin/BulkDock/SCRATCH/511024/C81103-P54/C81103-P54.minimised.mol

>  <scratch_subdir>  (1231) 
/opt/xchem-fragalysis-2/maxwin/BulkDock/SCRATCH/511024/C81103-P54

>  <fragmenstein_runtime>  (1231) 
12.005059957504272

>  <fragmenstein_outcome>  (1231) 
too moved

>  <fragmenstein_mode>  (1231) 
expansion

>  <fragmenstein_error>  (1231) 


$$$$
C81103-P106
     RDKit          3D

 34 36  0  0  0  0  0  0  0  0999 V2000
   -6.9217  -18.3977   21.8351 C   0  0  0  0  0  0  0  0  0  0  0  0
   -5.5023  -18.3650   21.7914 O   0  0  0  0  0  0  0  0  0  0  0  0
   -4.9970  -17.6335   20.7170 C   0  0  0  0  0  0  0  0  0  0  0  0
   -5.6817  -16.6059   20.1863 N   0  0  0  0  0  0  0  0  0  0  0  0
   -5.0170  -15.8666   19.2216 C   0  0  0  0  0  0  0  0  0  0  0  0
   -3.7107  -16.0595   18.7683 C   0  0  0  0  0  0  0  0  0  0  0  0
   -2.9521  -15.1502   17.6802 C   0  0  0  0  0  0  0  0  0  0  0  0
   -1.7404  -14.2500   18.2393 C   0  0  0  0  0  0  0  0  0  0  0  0
   -0.1556  -13.4749   17.7215 N   0  0  0  0  0  0  0  0  0  0  0  0
    1.6429  -13.7184   17.7333 C   0  0  0  0  0  0  0  0  0  0  0  0
    2.9916  -12.3982   18.0900 C   0  0  0  0  0  0  0  0  0  0  0  0
    3.1889  -11.0518   16.8578 C   0  0  0  0  0  0  0  0  0  0  0  0
    2.5734  -11.0472   15.6831 N   0  0  0  0  0  0  0  0  0  0  0  0
    1.6480  -12.0194   15.1978 C   0  0  0  0  0  0  0  0  0  0  0  0
    1.1008  -12.0190   14.0074 N   0  0  0  0  0  0  0  0  0  0  0  0
    0.5137  -13.2404   13.8543 C   0  0  0  0  0  0  0  0  0  0  0  0
    0.5912  -14.0552   14.9648 C   0  0  0  0  0  0  0  0  0  0  0  0
    1.2394  -13.3592   15.9680 N   0  0  0  0  0  0  0  0  0  0  0  0
   -3.1552  -17.1730   19.3881 C   0  0  0  0  0  0  0  0  0  0  0  0
   -3.7611  -17.9703   20.3321 N   0  0  0  0  0  0  0  0  0  0  0  0
   -7.2247  -19.2303   22.4728 H   0  0  0  0  0  0  0  0  0  0  0  0
   -7.3100  -17.4666   22.2592 H   0  0  0  0  0  0  0  0  0  0  0  0
   -7.3552  -18.5751   20.8441 H   0  0  0  0  0  0  0  0  0  0  0  0
   -5.6145  -15.0496   18.8218 H   0  0  0  0  0  0  0  0  0  0  0  0
   -2.6706  -15.7832   16.8380 H   0  0  0  0  0  0  0  0  0  0  0  0
   -3.7027  -14.4604   17.2717 H   0  0  0  0  0  0  0  0  0  0  0  0
   -1.5100  -14.9056   19.0793 H   0  0  0  0  0  0  0  0  0  0  0  0
   -2.2629  -13.3509   18.6076 H   0  0  0  0  0  0  0  0  0  0  0  0
   -0.3704  -12.5054   17.4992 H   0  0  0  0  0  0  0  0  0  0  0  0
    3.9980  -12.7187   18.5094 H   0  0  0  0  0  0  0  0  0  0  0  0
    3.9773  -10.3101   17.0580 H   0  0  0  0  0  0  0  0  0  0  0  0
    0.0494  -13.5026   12.9113 H   0  0  0  0  0  0  0  0  0  0  0  0
    0.2593  -15.0704   15.0898 H   0  0  0  0  0  0  0  0  0  0  0  0
   -2.1384  -17.4856   19.1600 H   0  0  0  0  0  0  0  0  0  0  0  0
  1  2  1  0
  2  3  1  0
  3  4  2  0
  4  5  1  0
  5  6  2  0
  6  7  1  0
  7  8  1  0
  8  9  1  0
  9 10  1  0
 10 11  2  0
 11 12  1  0
 12 13  2  0
 13 14  1  0
 14 15  2  0
 15 16  1  0
 16 17  2  0
 17 18  1  0
  6 19  1  0
 19 20  2  0
 20  3  1  0
 18 10  1  0
 18 14  1  0
  1 21  1  0
  1 22  1  0
  1 23  1  0
  5 24  1  0
  7 25  1  0
  7 26  1  0
  8 27  1  0
  8 28  1  0
  9 29  1  0
 11 30  1  0
 12 31  1  0
 16 32  1  0
 17 33  1  0
 19 34  1  0
M  END
>  <Energy>  (1232) 
491.44810169332482

>  <compound_id>  (1232) 
81103

>  <target_id>  (1232) 
1

>  <reference_id>  (1232) 
106

>  <inspiration_ids>  (1232) 
[54, 106]

>  <energy_score>  (1232) 
438.6473948090595

>  <distance_score>  (1232) 
14.946429397395114

>  <path>  (1232) 
/opt/xchem-fragalysis-2/maxwin/BulkDock/SCRATCH/511024/C81103-P106/C81103-P106.minimised.mol

>  <scratch_subdir>  (1232) 
/opt/xchem-fragalysis-2/maxwin/BulkDock/SCRATCH/511024/C81103-P106

>  <fragmenstein_runtime>  (1232) 
13.259068250656128

>  <fragmenstein_outcome>  (1232) 
too moved

>  <fragmenstein_mode>  (1232) 
expansion

>  <fragmenstein_error>  (1232) 


$$$$
C81099-P54
     RDKit          3D

 36 39  0  0  0  0  0  0  0  0999 V2000
   -2.9506  -19.6340   23.1346 Cl  0  0  0  0  0  0  0  0  0  0  0  0
   -3.8256  -17.8955   23.8922 C   0  0  0  0  0  0  0  0  0  0  0  0
   -2.7610  -16.1150   23.9210 C   0  0  0  0  0  0  0  0  0  0  0  0
   -3.1214  -14.3769   23.0410 C   0  0  0  0  0  0  0  0  0  0  0  0
   -1.6202  -13.0219   22.7310 N   0  0  0  0  0  0  0  0  0  0  0  0
   -0.2298  -12.6306   21.4404 C   0  0  0  0  0  0  0  0  0  0  0  0
    1.8112  -12.0535   21.2210 C   0  0  0  0  0  0  0  0  0  0  0  0
    2.9496  -11.6674   22.5441 N   0  0  0  0  0  0  0  0  0  0  0  0
    4.6263  -10.7956   22.8407 C   0  0  0  0  0  0  0  0  0  0  0  0
    4.9948  -10.2354   24.0720 C   0  0  0  0  0  0  0  0  0  0  0  0
    5.6968   -8.8921   24.2960 C   0  0  0  0  0  0  0  0  0  0  0  0
    6.1164   -8.0424   23.4227 N   0  0  0  0  0  0  0  0  0  0  0  0
    6.1346   -8.5388   22.1700 C   0  0  0  0  0  0  0  0  0  0  0  0
    6.7311   -8.0372   21.0992 N   0  0  0  0  0  0  0  0  0  0  0  0
    7.4467   -9.1091   20.7036 C   0  0  0  0  0  0  0  0  0  0  0  0
    7.0550  -10.1825   21.4772 C   0  0  0  0  0  0  0  0  0  0  0  0
    5.7028   -9.9082   21.8865 N   0  0  0  0  0  0  0  0  0  0  0  0
    1.1490  -10.9722   22.7118 C   0  0  0  0  0  0  0  0  0  0  0  0
   -0.0509  -11.7546   23.2637 C   0  0  0  0  0  0  0  0  0  0  0  0
   -5.0066  -14.5674   22.4810 N   0  0  0  0  0  0  0  0  0  0  0  0
   -6.1634  -16.2852   22.4519 C   0  0  0  0  0  0  0  0  0  0  0  0
   -5.5179  -17.8405   23.1695 N   0  0  0  0  0  0  0  0  0  0  0  0
   -1.8783  -16.1872   24.5748 H   0  0  0  0  0  0  0  0  0  0  0  0
   -0.7947  -13.0022   20.5433 H   0  0  0  0  0  0  0  0  0  0  0  0
    0.7263  -13.2530   21.4492 H   0  0  0  0  0  0  0  0  0  0  0  0
    2.3843  -12.8940   20.8135 H   0  0  0  0  0  0  0  0  0  0  0  0
    1.9881  -11.1678   20.5761 H   0  0  0  0  0  0  0  0  0  0  0  0
    4.4375  -10.5012   24.9491 H   0  0  0  0  0  0  0  0  0  0  0  0
    5.7195   -8.5799   25.3552 H   0  0  0  0  0  0  0  0  0  0  0  0
    8.3037   -9.0241   20.0487 H   0  0  0  0  0  0  0  0  0  0  0  0
    7.6013  -11.0688   21.7511 H   0  0  0  0  0  0  0  0  0  0  0  0
    1.0398  -10.3236   21.8208 H   0  0  0  0  0  0  0  0  0  0  0  0
    0.8593  -10.2248   23.5082 H   0  0  0  0  0  0  0  0  0  0  0  0
    0.2857  -12.6170   22.9839 H   0  0  0  0  0  0  0  0  0  0  0  0
    0.4391  -11.7298   24.3044 H   0  0  0  0  0  0  0  0  0  0  0  0
   -7.2518  -16.3248   22.2726 H   0  0  0  0  0  0  0  0  0  0  0  0
  1  2  1  0
  2  3  2  0
  3  4  1  0
  4  5  1  0
  5  6  1  0
  6  7  1  0
  7  8  1  0
  8  9  1  0
  9 10  2  0
 10 11  1  0
 11 12  2  0
 12 13  1  0
 13 14  2  0
 14 15  1  0
 15 16  2  0
 16 17  1  0
  8 18  1  0
 18 19  1  0
  4 20  2  0
 20 21  1  0
 21 22  2  0
 22  2  1  0
 19  5  1  0
 17  9  1  0
 17 13  1  0
  3 23  1  0
  6 24  1  0
  6 25  1  0
  7 26  1  0
  7 27  1  0
 10 28  1  0
 11 29  1  0
 15 30  1  0
 16 31  1  0
 18 32  1  0
 18 33  1  0
 19 34  1  0
 19 35  1  0
 21 36  1  0
M  END
>  <Energy>  (1233) 
2014.5924947795102

>  <compound_id>  (1233) 
81099

>  <target_id>  (1233) 
1

>  <reference_id>  (1233) 
54

>  <inspiration_ids>  (1233) 
[54, 106]

>  <energy_score>  (1233) 
1899.4167797760847

>  <distance_score>  (1233) 
12.714070021201922

>  <path>  (1233) 
/opt/xchem-fragalysis-2/maxwin/BulkDock/SCRATCH/511024/C81099-P54/C81099-P54.minimised.mol

>  <scratch_subdir>  (1233) 
/opt/xchem-fragalysis-2/maxwin/BulkDock/SCRATCH/511024/C81099-P54

>  <fragmenstein_runtime>  (1233) 
11.000697374343872

>  <fragmenstein_outcome>  (1233) 
too moved

>  <fragmenstein_mode>  (1233) 
expansion

>  <fragmenstein_error>  (1233) 


$$$$
C81099-P106
     RDKit          3D

 36 39  0  0  0  0  0  0  0  0999 V2000
    6.3927  -16.0281   29.1145 Cl  0  0  0  0  0  0  0  0  0  0  0  0
    5.4701  -16.4817   27.7316 C   0  0  0  0  0  0  0  0  0  0  0  0
    5.6082  -15.7472   26.5521 C   0  0  0  0  0  0  0  0  0  0  0  0
    4.8165  -16.0955   25.4809 C   0  0  0  0  0  0  0  0  0  0  0  0
    4.5494  -15.1049   24.3770 N   0  0  0  0  0  0  0  0  0  0  0  0
    3.4561  -14.7871   23.0402 C   0  0  0  0  0  0  0  0  0  0  0  0
    3.5598  -13.2677   21.6424 C   0  0  0  0  0  0  0  0  0  0  0  0
    3.8624  -11.9079   22.4102 N   0  0  0  0  0  0  0  0  0  0  0  0
    5.3598  -10.8735   22.1832 C   0  0  0  0  0  0  0  0  0  0  0  0
    5.9217   -9.9220   23.0102 C   0  0  0  0  0  0  0  0  0  0  0  0
    7.1384   -9.1180   22.6647 C   0  0  0  0  0  0  0  0  0  0  0  0
    7.8540   -9.1973   21.6050 N   0  0  0  0  0  0  0  0  0  0  0  0
    7.4651  -10.1522   20.7278 C   0  0  0  0  0  0  0  0  0  0  0  0
    8.0247  -10.3540   19.5544 N   0  0  0  0  0  0  0  0  0  0  0  0
    7.3624  -11.4005   19.0085 C   0  0  0  0  0  0  0  0  0  0  0  0
    6.3795  -11.8615   19.8528 C   0  0  0  0  0  0  0  0  0  0  0  0
    6.3418  -11.0276   20.9540 N   0  0  0  0  0  0  0  0  0  0  0  0
    3.2027  -12.8173   23.8484 C   0  0  0  0  0  0  0  0  0  0  0  0
    4.0540  -14.0003   25.0767 C   0  0  0  0  0  0  0  0  0  0  0  0
    4.1715  -17.2929   25.6573 N   0  0  0  0  0  0  0  0  0  0  0  0
    4.0450  -17.9135   26.8545 C   0  0  0  0  0  0  0  0  0  0  0  0
    4.6569  -17.5259   27.9474 N   0  0  0  0  0  0  0  0  0  0  0  0
    6.2701  -14.8920   26.5258 H   0  0  0  0  0  0  0  0  0  0  0  0
    2.4544  -14.6891   23.3424 H   0  0  0  0  0  0  0  0  0  0  0  0
    3.6872  -15.7773   22.8634 H   0  0  0  0  0  0  0  0  0  0  0  0
    4.4445  -13.2125   20.9851 H   0  0  0  0  0  0  0  0  0  0  0  0
    2.9624  -13.5502   20.8152 H   0  0  0  0  0  0  0  0  0  0  0  0
    5.5327   -9.4869   23.8921 H   0  0  0  0  0  0  0  0  0  0  0  0
    7.4147   -8.3648   23.4231 H   0  0  0  0  0  0  0  0  0  0  0  0
    7.6189  -11.7831   18.0288 H   0  0  0  0  0  0  0  0  0  0  0  0
    5.6742  -12.6538   19.6868 H   0  0  0  0  0  0  0  0  0  0  0  0
    2.2736  -12.3575   24.1590 H   0  0  0  0  0  0  0  0  0  0  0  0
    4.0251  -12.4923   24.3094 H   0  0  0  0  0  0  0  0  0  0  0  0
    3.4513  -14.1881   25.9560 H   0  0  0  0  0  0  0  0  0  0  0  0
    4.9627  -13.5678   25.5710 H   0  0  0  0  0  0  0  0  0  0  0  0
    3.4124  -18.7926   26.8934 H   0  0  0  0  0  0  0  0  0  0  0  0
  1  2  1  0
  2  3  2  0
  3  4  1  0
  4  5  1  0
  5  6  1  0
  6  7  1  0
  7  8  1  0
  8  9  1  0
  9 10  2  0
 10 11  1  0
 11 12  2  0
 12 13  1  0
 13 14  2  0
 14 15  1  0
 15 16  2  0
 16 17  1  0
  8 18  1  0
 18 19  1  0
  4 20  2  0
 20 21  1  0
 21 22  2  0
 22  2  1  0
 19  5  1  0
 17  9  1  0
 17 13  1  0
  3 23  1  0
  6 24  1  0
  6 25  1  0
  7 26  1  0
  7 27  1  0
 10 28  1  0
 11 29  1  0
 15 30  1  0
 16 31  1  0
 18 32  1  0
 18 33  1  0
 19 34  1  0
 19 35  1  0
 21 36  1  0
M  END
>  <Energy>  (1234) 
507.38450499626941

>  <compound_id>  (1234) 
81099

>  <target_id>  (1234) 
1

>  <reference_id>  (1234) 
106

>  <inspiration_ids>  (1234) 
[54, 106]

>  <energy_score>  (1234) 
392.2087899928297

>  <distance_score>  (1234) 
15.045709358067482

>  <path>  (1234) 
/opt/xchem-fragalysis-2/maxwin/BulkDock/SCRATCH/511024/C81099-P106/C81099-P106.minimised.mol

>  <scratch_subdir>  (1234) 
/opt/xchem-fragalysis-2/maxwin/BulkDock/SCRATCH/511024/C81099-P106

>  <fragmenstein_runtime>  (1234) 
15.529969453811646

>  <fragmenstein_outcome>  (1234) 
too moved

>  <fragmenstein_mode>  (1234) 
expansion

>  <fragmenstein_error>  (1234) 


$$$$
C81103-P54
     RDKit          3D

 34 36  0  0  0  0  0  0  0  0999 V2000
   -2.0957  -21.8247   22.8833 C   0  0  0  0  0  0  0  0  0  0  0  0
   -0.8180  -22.4574   22.8563 O   0  0  0  0  0  0  0  0  0  0  0  0
    0.1043  -21.8945   21.9700 C   0  0  0  0  0  0  0  0  0  0  0  0
    1.3551  -22.3916   22.0477 N   0  0  0  0  0  0  0  0  0  0  0  0
    2.3773  -21.7024   21.4112 C   0  0  0  0  0  0  0  0  0  0  0  0
    2.2439  -20.5086   20.7209 C   0  0  0  0  0  0  0  0  0  0  0  0
    3.3895  -19.4599   20.4003 C   0  0  0  0  0  0  0  0  0  0  0  0
    4.9843  -19.6230   19.7766 C   0  0  0  0  0  0  0  0  0  0  0  0
    5.7867  -18.2318   19.4604 N   0  0  0  0  0  0  0  0  0  0  0  0
    7.0993  -17.9104   18.8164 C   0  0  0  0  0  0  0  0  0  0  0  0
    8.2546  -18.3808   19.3313 C   0  0  0  0  0  0  0  0  0  0  0  0
    9.5485  -17.7732   18.8784 C   0  0  0  0  0  0  0  0  0  0  0  0
    9.7441  -16.8688   17.9754 N   0  0  0  0  0  0  0  0  0  0  0  0
    8.6186  -16.3937   17.3856 C   0  0  0  0  0  0  0  0  0  0  0  0
    8.5595  -15.4179   16.4912 N   0  0  0  0  0  0  0  0  0  0  0  0
    7.2415  -15.1685   16.2962 C   0  0  0  0  0  0  0  0  0  0  0  0
    6.4830  -15.9775   17.1046 C   0  0  0  0  0  0  0  0  0  0  0  0
    7.3233  -16.8530   17.7769 N   0  0  0  0  0  0  0  0  0  0  0  0
    0.8836  -20.1347   20.6721 C   0  0  0  0  0  0  0  0  0  0  0  0
   -0.1827  -20.7833   21.2829 N   0  0  0  0  0  0  0  0  0  0  0  0
   -2.0121  -20.7819   23.2028 H   0  0  0  0  0  0  0  0  0  0  0  0
   -2.7193  -22.3546   23.6092 H   0  0  0  0  0  0  0  0  0  0  0  0
   -2.5805  -21.8904   21.9037 H   0  0  0  0  0  0  0  0  0  0  0  0
    3.3608  -22.1327   21.5841 H   0  0  0  0  0  0  0  0  0  0  0  0
    3.5461  -18.9166   21.3410 H   0  0  0  0  0  0  0  0  0  0  0  0
    2.9042  -18.7441   19.7402 H   0  0  0  0  0  0  0  0  0  0  0  0
    4.9320  -20.2086   18.8552 H   0  0  0  0  0  0  0  0  0  0  0  0
    5.5756  -20.1881   20.5040 H   0  0  0  0  0  0  0  0  0  0  0  0
    5.0784  -17.6115   19.0426 H   0  0  0  0  0  0  0  0  0  0  0  0
    8.2892  -19.0829   20.1499 H   0  0  0  0  0  0  0  0  0  0  0  0
   10.4345  -18.1783   19.3963 H   0  0  0  0  0  0  0  0  0  0  0  0
    6.8998  -14.3817   15.6364 H   0  0  0  0  0  0  0  0  0  0  0  0
    5.4373  -15.9438   17.3278 H   0  0  0  0  0  0  0  0  0  0  0  0
    0.6007  -19.1819   20.2224 H   0  0  0  0  0  0  0  0  0  0  0  0
  1  2  1  0
  2  3  1  0
  3  4  2  0
  4  5  1  0
  5  6  2  0
  6  7  1  0
  7  8  1  0
  8  9  1  0
  9 10  1  0
 10 11  2  0
 11 12  1  0
 12 13  2  0
 13 14  1  0
 14 15  2  0
 15 16  1  0
 16 17  2  0
 17 18  1  0
  6 19  1  0
 19 20  2  0
 20  3  1  0
 18 10  1  0
 18 14  1  0
  1 21  1  0
  1 22  1  0
  1 23  1  0
  5 24  1  0
  7 25  1  0
  7 26  1  0
  8 27  1  0
  8 28  1  0
  9 29  1  0
 11 30  1  0
 12 31  1  0
 16 32  1  0
 17 33  1  0
 19 34  1  0
M  END
>  <Energy>  (1235) 
84.530500341742339

>  <compound_id>  (1235) 
81103

>  <target_id>  (1235) 
1

>  <reference_id>  (1235) 
54

>  <inspiration_ids>  (1235) 
[54, 106]

>  <energy_score>  (1235) 
31.729793457474727

>  <distance_score>  (1235) 
16.004112201370397

>  <path>  (1235) 
/opt/xchem-fragalysis-2/maxwin/BulkDock/SCRATCH/511024/C81103-P54/C81103-P54.minimised.mol

>  <scratch_subdir>  (1235) 
/opt/xchem-fragalysis-2/maxwin/BulkDock/SCRATCH/511024/C81103-P54

>  <fragmenstein_runtime>  (1235) 
12.276005268096924

>  <fragmenstein_outcome>  (1235) 
too moved

>  <fragmenstein_mode>  (1235) 
expansion

>  <fragmenstein_error>  (1235) 


$$$$
C81103-P106
     RDKit          3D

 34 36  0  0  0  0  0  0  0  0999 V2000
   -6.9217  -18.3977   21.8351 C   0  0  0  0  0  0  0  0  0  0  0  0
   -5.5023  -18.3650   21.7914 O   0  0  0  0  0  0  0  0  0  0  0  0
   -4.9970  -17.6335   20.7170 C   0  0  0  0  0  0  0  0  0  0  0  0
   -5.6817  -16.6059   20.1863 N   0  0  0  0  0  0  0  0  0  0  0  0
   -5.0170  -15.8666   19.2216 C   0  0  0  0  0  0  0  0  0  0  0  0
   -3.7107  -16.0595   18.7683 C   0  0  0  0  0  0  0  0  0  0  0  0
   -2.9521  -15.1502   17.6802 C   0  0  0  0  0  0  0  0  0  0  0  0
   -1.7404  -14.2500   18.2393 C   0  0  0  0  0  0  0  0  0  0  0  0
   -0.1556  -13.4749   17.7215 N   0  0  0  0  0  0  0  0  0  0  0  0
    1.6429  -13.7184   17.7333 C   0  0  0  0  0  0  0  0  0  0  0  0
    2.9916  -12.3982   18.0900 C   0  0  0  0  0  0  0  0  0  0  0  0
    3.1889  -11.0518   16.8578 C   0  0  0  0  0  0  0  0  0  0  0  0
    2.5734  -11.0472   15.6831 N   0  0  0  0  0  0  0  0  0  0  0  0
    1.6480  -12.0194   15.1978 C   0  0  0  0  0  0  0  0  0  0  0  0
    1.1008  -12.0190   14.0074 N   0  0  0  0  0  0  0  0  0  0  0  0
    0.5137  -13.2404   13.8543 C   0  0  0  0  0  0  0  0  0  0  0  0
    0.5912  -14.0552   14.9648 C   0  0  0  0  0  0  0  0  0  0  0  0
    1.2394  -13.3592   15.9680 N   0  0  0  0  0  0  0  0  0  0  0  0
   -3.1552  -17.1730   19.3881 C   0  0  0  0  0  0  0  0  0  0  0  0
   -3.7611  -17.9703   20.3321 N   0  0  0  0  0  0  0  0  0  0  0  0
   -7.2247  -19.2303   22.4728 H   0  0  0  0  0  0  0  0  0  0  0  0
   -7.3100  -17.4666   22.2592 H   0  0  0  0  0  0  0  0  0  0  0  0
   -7.3552  -18.5751   20.8441 H   0  0  0  0  0  0  0  0  0  0  0  0
   -5.6145  -15.0496   18.8218 H   0  0  0  0  0  0  0  0  0  0  0  0
   -2.6706  -15.7832   16.8380 H   0  0  0  0  0  0  0  0  0  0  0  0
   -3.7027  -14.4604   17.2717 H   0  0  0  0  0  0  0  0  0  0  0  0
   -1.5100  -14.9056   19.0793 H   0  0  0  0  0  0  0  0  0  0  0  0
   -2.2629  -13.3509   18.6076 H   0  0  0  0  0  0  0  0  0  0  0  0
   -0.3704  -12.5054   17.4992 H   0  0  0  0  0  0  0  0  0  0  0  0
    3.9980  -12.7187   18.5094 H   0  0  0  0  0  0  0  0  0  0  0  0
    3.9773  -10.3101   17.0580 H   0  0  0  0  0  0  0  0  0  0  0  0
    0.0494  -13.5026   12.9113 H   0  0  0  0  0  0  0  0  0  0  0  0
    0.2593  -15.0704   15.0898 H   0  0  0  0  0  0  0  0  0  0  0  0
   -2.1384  -17.4856   19.1600 H   0  0  0  0  0  0  0  0  0  0  0  0
  1  2  1  0
  2  3  1  0
  3  4  2  0
  4  5  1  0
  5  6  2  0
  6  7  1  0
  7  8  1  0
  8  9  1  0
  9 10  1  0
 10 11  2  0
 11 12  1  0
 12 13  2  0
 13 14  1  0
 14 15  2  0
 15 16  1  0
 16 17  2  0
 17 18  1  0
  6 19  1  0
 19 20  2  0
 20  3  1  0
 18 10  1  0
 18 14  1  0
  1 21  1  0
  1 22  1  0
  1 23  1  0
  5 24  1  0
  7 25  1  0
  7 26  1  0
  8 27  1  0
  8 28  1  0
  9 29  1  0
 11 30  1  0
 12 31  1  0
 16 32  1  0
 17 33  1  0
 19 34  1  0
M  END
>  <Energy>  (1236) 
491.44810169332482

>  <compound_id>  (1236) 
81103

>  <target_id>  (1236) 
1

>  <reference_id>  (1236) 
106

>  <inspiration_ids>  (1236) 
[54, 106]

>  <energy_score>  (1236) 
438.6473948090595

>  <distance_score>  (1236) 
14.946429397395114

>  <path>  (1236) 
/opt/xchem-fragalysis-2/maxwin/BulkDock/SCRATCH/511024/C81103-P106/C81103-P106.minimised.mol

>  <scratch_subdir>  (1236) 
/opt/xchem-fragalysis-2/maxwin/BulkDock/SCRATCH/511024/C81103-P106

>  <fragmenstein_runtime>  (1236) 
13.058007717132568

>  <fragmenstein_outcome>  (1236) 
too moved

>  <fragmenstein_mode>  (1236) 
expansion

>  <fragmenstein_error>  (1236) 


$$$$
C47072-P97
     RDKit          3D

 35 38  0  0  0  0  0  0  0  0999 V2000
    6.9134   -1.1910   23.6874 C   0  0  0  0  0  0  0  0  0  0  0  0
    6.0307   -2.0574   23.0487 C   0  0  0  0  0  0  0  0  0  0  0  0
    4.7538   -2.2921   23.5822 C   0  0  0  0  0  0  0  0  0  0  0  0
    4.3949   -1.6403   24.7808 C   0  0  0  0  0  0  0  0  0  0  0  0
    3.2154   -1.6699   25.5199 N   0  0  0  0  0  0  0  0  0  0  0  0
    3.2393   -0.8381   26.6392 C   0  0  0  0  0  0  0  0  0  0  0  0
    2.0088   -0.4407   27.5011 C   0  0  0  0  0  0  0  0  0  0  0  0
    1.7523    0.9375   27.5862 C   0  0  0  0  0  0  0  0  0  0  0  0
    0.7036    1.5495   28.2255 N   0  0  0  0  0  0  0  0  0  0  0  0
   -0.1913    0.7614   28.8438 C   0  0  0  0  0  0  0  0  0  0  0  0
   -0.0787   -0.6179   28.9002 C   0  0  0  0  0  0  0  0  0  0  0  0
    1.0363   -1.2399   28.2235 C   0  0  0  0  0  0  0  0  0  0  0  0
    1.1857   -2.7353   28.4265 C   0  0  0  0  0  0  0  0  0  0  0  0
   -0.0779   -3.4753   28.9221 C   0  0  0  0  0  0  0  0  0  0  0  0
   -0.7474   -2.7525   30.0818 C   0  0  0  0  0  0  0  0  0  0  0  0
   -1.1813   -1.3747   29.6176 C   0  0  0  0  0  0  0  0  0  0  0  0
    4.5298   -0.2809   26.5801 C   0  0  0  0  0  0  0  0  0  0  0  0
    5.2555   -0.7735   25.4373 C   0  0  0  0  0  0  0  0  0  0  0  0
    6.5382   -0.5458   24.8781 C   0  0  0  0  0  0  0  0  0  0  0  0
    7.8940   -0.9927   23.2699 H   0  0  0  0  0  0  0  0  0  0  0  0
    6.3177   -2.5568   22.1271 H   0  0  0  0  0  0  0  0  0  0  0  0
    4.0531   -2.9561   23.0839 H   0  0  0  0  0  0  0  0  0  0  0  0
    2.3856   -2.1600   25.2092 H   0  0  0  0  0  0  0  0  0  0  0  0
    2.4108    1.6458   27.0853 H   0  0  0  0  0  0  0  0  0  0  0  0
   -1.0200    1.2885   29.3073 H   0  0  0  0  0  0  0  0  0  0  0  0
    1.9830   -2.8816   29.1667 H   0  0  0  0  0  0  0  0  0  0  0  0
    1.5233   -3.2037   27.4978 H   0  0  0  0  0  0  0  0  0  0  0  0
    0.1970   -4.4925   29.2232 H   0  0  0  0  0  0  0  0  0  0  0  0
   -0.7897   -3.5712   28.0956 H   0  0  0  0  0  0  0  0  0  0  0  0
   -1.6122   -3.3175   30.4431 H   0  0  0  0  0  0  0  0  0  0  0  0
   -0.0418   -2.6665   30.9173 H   0  0  0  0  0  0  0  0  0  0  0  0
   -2.0263   -1.4688   28.9245 H   0  0  0  0  0  0  0  0  0  0  0  0
   -1.5274   -0.8033   30.4873 H   0  0  0  0  0  0  0  0  0  0  0  0
    4.9033    0.4562   27.2797 H   0  0  0  0  0  0  0  0  0  0  0  0
    7.2258    0.1375   25.3683 H   0  0  0  0  0  0  0  0  0  0  0  0
  1  2  2  0
  2  3  1  0
  3  4  2  0
  4  5  1  0
  5  6  1  0
  6  7  1  0
  7  8  2  0
  8  9  1  0
  9 10  2  0
 10 11  1  0
 11 12  2  0
 12 13  1  0
 13 14  1  0
 14 15  1  0
 15 16  1  0
  6 17  2  0
 17 18  1  0
 18 19  2  0
 19  1  1  0
 18  4  1  0
 12  7  1  0
 16 11  1  0
  1 20  1  0
  2 21  1  0
  3 22  1  0
  5 23  1  0
  8 24  1  0
 10 25  1  0
 13 26  1  0
 13 27  1  0
 14 28  1  0
 14 29  1  0
 15 30  1  0
 15 31  1  0
 16 32  1  0
 16 33  1  0
 17 34  1  0
 19 35  1  0
M  END
>  <Energy>  (1237) 
60.114905361332937

>  <compound_id>  (1237) 
47072

>  <target_id>  (1237) 
1

>  <reference_id>  (1237) 
97

>  <inspiration_ids>  (1237) 
[97, 7]

>  <energy_score>  (1237) 
-19.622105975709104

>  <distance_score>  (1237) 
13.75167313413689

>  <path>  (1237) 
/opt/xchem-fragalysis-2/maxwin/BulkDock/SCRATCH/511024/C47072-P97/C47072-P97.minimised.mol

>  <scratch_subdir>  (1237) 
/opt/xchem-fragalysis-2/maxwin/BulkDock/SCRATCH/511024/C47072-P97

>  <fragmenstein_runtime>  (1237) 
6.319947242736816

>  <fragmenstein_outcome>  (1237) 
too moved

>  <fragmenstein_mode>  (1237) 
expansion

>  <fragmenstein_error>  (1237) 


$$$$
C47072-P7
     RDKit          3D

 35 38  0  0  0  0  0  0  0  0999 V2000
    6.4400   -2.9242   23.9663 C   0  0  0  0  0  0  0  0  0  0  0  0
    6.0086   -1.8134   23.2492 C   0  0  0  0  0  0  0  0  0  0  0  0
    4.9825   -0.9995   23.7504 C   0  0  0  0  0  0  0  0  0  0  0  0
    4.3926   -1.3469   24.9846 C   0  0  0  0  0  0  0  0  0  0  0  0
    3.3659   -0.7567   25.7052 N   0  0  0  0  0  0  0  0  0  0  0  0
    3.0074   -1.4578   26.8742 C   0  0  0  0  0  0  0  0  0  0  0  0
    1.8570   -0.9837   27.8112 C   0  0  0  0  0  0  0  0  0  0  0  0
    1.7010    0.4066   27.9538 C   0  0  0  0  0  0  0  0  0  0  0  0
    0.6989    1.0777   28.6145 N   0  0  0  0  0  0  0  0  0  0  0  0
   -0.2618    0.3416   29.1953 C   0  0  0  0  0  0  0  0  0  0  0  0
   -0.2373   -1.0378   29.2031 C   0  0  0  0  0  0  0  0  0  0  0  0
    0.8526   -1.7193   28.5451 C   0  0  0  0  0  0  0  0  0  0  0  0
    0.7445   -3.2252   28.6503 C   0  0  0  0  0  0  0  0  0  0  0  0
    0.2767   -3.7218   30.0424 C   0  0  0  0  0  0  0  0  0  0  0  0
   -0.8572   -2.9273   30.7034 C   0  0  0  0  0  0  0  0  0  0  0  0
   -1.3823   -1.8072   29.8254 C   0  0  0  0  0  0  0  0  0  0  0  0
    3.9218   -2.5163   26.8777 C   0  0  0  0  0  0  0  0  0  0  0  0
    4.7853   -2.4589   25.7137 C   0  0  0  0  0  0  0  0  0  0  0  0
    5.8426   -3.2513   25.1967 C   0  0  0  0  0  0  0  0  0  0  0  0
    7.2222   -3.5615   23.5673 H   0  0  0  0  0  0  0  0  0  0  0  0
    6.4531   -1.5812   22.2862 H   0  0  0  0  0  0  0  0  0  0  0  0
    4.6332   -0.1381   23.1905 H   0  0  0  0  0  0  0  0  0  0  0  0
    2.8720    0.0573   25.3804 H   0  0  0  0  0  0  0  0  0  0  0  0
    2.4218    1.0870   27.5041 H   0  0  0  0  0  0  0  0  0  0  0  0
   -1.0628    0.9083   29.6581 H   0  0  0  0  0  0  0  0  0  0  0  0
    0.0255   -3.5714   27.9034 H   0  0  0  0  0  0  0  0  0  0  0  0
    1.7044   -3.6964   28.4196 H   0  0  0  0  0  0  0  0  0  0  0  0
    1.1408   -3.7032   30.7203 H   0  0  0  0  0  0  0  0  0  0  0  0
   -0.0111   -4.7770   29.9608 H   0  0  0  0  0  0  0  0  0  0  0  0
   -0.4718   -2.4968   31.6375 H   0  0  0  0  0  0  0  0  0  0  0  0
   -1.6724   -3.5943   30.9990 H   0  0  0  0  0  0  0  0  0  0  0  0
   -2.0172   -1.1463   30.4268 H   0  0  0  0  0  0  0  0  0  0  0  0
   -2.0052   -2.2096   29.0189 H   0  0  0  0  0  0  0  0  0  0  0  0
    3.9680   -3.2793   27.6426 H   0  0  0  0  0  0  0  0  0  0  0  0
    6.1686   -4.1323   25.7418 H   0  0  0  0  0  0  0  0  0  0  0  0
  1  2  2  0
  2  3  1  0
  3  4  2  0
  4  5  1  0
  5  6  1  0
  6  7  1  0
  7  8  2  0
  8  9  1  0
  9 10  2  0
 10 11  1  0
 11 12  2  0
 12 13  1  0
 13 14  1  0
 14 15  1  0
 15 16  1  0
  6 17  2  0
 17 18  1  0
 18 19  2  0
 19  1  1  0
 18  4  1  0
 12  7  1  0
 16 11  1  0
  1 20  1  0
  2 21  1  0
  3 22  1  0
  5 23  1  0
  8 24  1  0
 10 25  1  0
 13 26  1  0
 13 27  1  0
 14 28  1  0
 14 29  1  0
 15 30  1  0
 15 31  1  0
 16 32  1  0
 16 33  1  0
 17 34  1  0
 19 35  1  0
M  END
>  <Energy>  (1238) 
65.520855942827936

>  <compound_id>  (1238) 
47072

>  <target_id>  (1238) 
1

>  <reference_id>  (1238) 
7

>  <inspiration_ids>  (1238) 
[97, 7]

>  <energy_score>  (1238) 
-14.216155394213814

>  <distance_score>  (1238) 
13.843553872090906

>  <path>  (1238) 
/opt/xchem-fragalysis-2/maxwin/BulkDock/SCRATCH/511024/C47072-P7/C47072-P7.minimised.mol

>  <scratch_subdir>  (1238) 
/opt/xchem-fragalysis-2/maxwin/BulkDock/SCRATCH/511024/C47072-P7

>  <fragmenstein_runtime>  (1238) 
4.73451042175293

>  <fragmenstein_outcome>  (1238) 
too moved

>  <fragmenstein_mode>  (1238) 
expansion

>  <fragmenstein_error>  (1238) 


$$$$
C47081-P97
     RDKit          3D

 41 43  0  0  0  0  0  0  0  0999 V2000
   -1.7796    1.2798   20.9813 O   0  0  0  0  0  0  0  0  0  0  0  0
   -1.6698    0.1006   20.7795 C   0  0  0  0  0  0  0  0  0  0  0  0
   -2.6065   -0.9876   20.9969 N   0  0  0  0  0  0  0  0  0  0  0  0
   -3.9923   -1.0048   21.6429 C   0  0  0  0  0  0  0  0  0  0  0  0
   -4.2431   -1.8945   23.0812 C   0  0  0  0  0  0  0  0  0  0  0  0
   -3.2751   -3.0698   22.9381 C   0  0  0  0  0  0  0  0  0  0  0  0
   -1.9594   -2.7250   22.6048 O   0  0  0  0  0  0  0  0  0  0  0  0
   -4.6042   -1.3515   24.4931 N   0  0  0  0  0  0  0  0  0  0  0  0
   -3.9656   -1.8404   25.8102 C   0  0  0  0  0  0  0  0  0  0  0  0
   -3.0835   -0.8533   26.7388 C   0  0  0  0  0  0  0  0  0  0  0  0
   -2.4392   -1.1931   27.9211 C   0  0  0  0  0  0  0  0  0  0  0  0
   -1.6741    0.1744   28.6125 S   0  0  0  0  0  0  0  0  0  0  0  0
   -2.1453    1.0965   27.2452 C   0  0  0  0  0  0  0  0  0  0  0  0
   -2.8925    0.4805   26.3521 N   0  0  0  0  0  0  0  0  0  0  0  0
   -0.2676   -0.2894   20.2033 C   0  0  0  0  0  0  0  0  0  0  0  0
    0.8679    0.3426   20.7529 C   0  0  0  0  0  0  0  0  0  0  0  0
    2.1767    0.2164   20.2291 C   0  0  0  0  0  0  0  0  0  0  0  0
    2.3366   -0.5230   19.0575 C   0  0  0  0  0  0  0  0  0  0  0  0
    3.4570   -0.7442   18.2823 N   0  0  0  0  0  0  0  0  0  0  0  0
    3.1169   -1.4493   17.1611 C   0  0  0  0  0  0  0  0  0  0  0  0
    1.7795   -1.7658   17.2611 C   0  0  0  0  0  0  0  0  0  0  0  0
    1.2579   -1.1685   18.4511 C   0  0  0  0  0  0  0  0  0  0  0  0
   -0.0479   -1.0722   19.0489 C   0  0  0  0  0  0  0  0  0  0  0  0
   -2.1431   -1.8716   20.7896 H   0  0  0  0  0  0  0  0  0  0  0  0
   -4.3851    0.0142   21.7218 H   0  0  0  0  0  0  0  0  0  0  0  0
   -4.6133   -1.5041   20.8870 H   0  0  0  0  0  0  0  0  0  0  0  0
   -5.2420   -2.2582   22.8402 H   0  0  0  0  0  0  0  0  0  0  0  0
   -3.5816   -3.6405   22.0561 H   0  0  0  0  0  0  0  0  0  0  0  0
   -3.1858   -3.7249   23.7913 H   0  0  0  0  0  0  0  0  0  0  0  0
   -1.8667   -1.7641   22.7752 H   0  0  0  0  0  0  0  0  0  0  0  0
   -4.6721   -0.3396   24.4236 H   0  0  0  0  0  0  0  0  0  0  0  0
   -3.3748   -2.6965   25.5603 H   0  0  0  0  0  0  0  0  0  0  0  0
   -4.7330   -2.2476   26.4768 H   0  0  0  0  0  0  0  0  0  0  0  0
   -2.3990   -2.1518   28.4140 H   0  0  0  0  0  0  0  0  0  0  0  0
   -1.8608    2.1355   27.1429 H   0  0  0  0  0  0  0  0  0  0  0  0
    0.7273    0.9972   21.6125 H   0  0  0  0  0  0  0  0  0  0  0  0
    3.0067    0.7330   20.6996 H   0  0  0  0  0  0  0  0  0  0  0  0
    4.3770   -0.3880   18.4966 H   0  0  0  0  0  0  0  0  0  0  0  0
    3.8389   -1.6758   16.3908 H   0  0  0  0  0  0  0  0  0  0  0  0
    1.2134   -2.3324   16.5330 H   0  0  0  0  0  0  0  0  0  0  0  0
   -0.8913   -1.5385   18.5473 H   0  0  0  0  0  0  0  0  0  0  0  0
  1  2  2  0
  2  3  1  0
  3  4  1  0
  4  5  1  0
  5  6  1  0
  6  7  1  0
  5  8  1  0
  8  9  1  0
  9 10  1  0
 10 11  2  0
 11 12  1  0
 12 13  1  0
 13 14  2  0
  2 15  1  0
 15 16  2  0
 16 17  1  0
 17 18  2  0
 18 19  1  0
 19 20  1  0
 20 21  2  0
 21 22  1  0
 22 23  2  0
 14 10  1  0
 23 15  1  0
 22 18  1  0
  3 24  1  0
  4 25  1  0
  4 26  1  0
  5 27  1  0
  6 28  1  0
  6 29  1  0
  7 30  1  0
  8 31  1  0
  9 32  1  0
  9 33  1  0
 11 34  1  0
 13 35  1  0
 16 36  1  0
 17 37  1  0
 19 38  1  0
 20 39  1  0
 21 40  1  0
 23 41  1  0
M  END
>  <Energy>  (1239) 
133.56797928568119

>  <compound_id>  (1239) 
47081

>  <target_id>  (1239) 
1

>  <reference_id>  (1239) 
97

>  <inspiration_ids>  (1239) 
[97, 7]

>  <energy_score>  (1239) 
-32.868924558846686

>  <distance_score>  (1239) 
14.417997133200172

>  <path>  (1239) 
/opt/xchem-fragalysis-2/maxwin/BulkDock/SCRATCH/511024/C47081-P97/C47081-P97.minimised.mol

>  <scratch_subdir>  (1239) 
/opt/xchem-fragalysis-2/maxwin/BulkDock/SCRATCH/511024/C47081-P97

>  <fragmenstein_runtime>  (1239) 
10.169337749481201

>  <fragmenstein_outcome>  (1239) 
too moved

>  <fragmenstein_mode>  (1239) 
expansion

>  <fragmenstein_error>  (1239) 


$$$$
C47081-P7
     RDKit          3D

 41 43  0  0  0  0  0  0  0  0999 V2000
   -5.9395   -6.2945   21.0798 O   0  0  0  0  0  0  0  0  0  0  0  0
   -5.4851   -7.1726   21.7672 C   0  0  0  0  0  0  0  0  0  0  0  0
   -6.1105   -7.9460   22.8987 N   0  0  0  0  0  0  0  0  0  0  0  0
   -7.4692   -7.7837   23.5880 C   0  0  0  0  0  0  0  0  0  0  0  0
   -8.5272   -8.6198   24.6033 C   0  0  0  0  0  0  0  0  0  0  0  0
   -9.7240   -7.5495   24.8199 C   0  0  0  0  0  0  0  0  0  0  0  0
  -10.7416   -7.8628   25.7840 O   0  0  0  0  0  0  0  0  0  0  0  0
   -8.1580   -9.1420   25.9438 N   0  0  0  0  0  0  0  0  0  0  0  0
   -9.1303  -10.0741   26.6023 C   0  0  0  0  0  0  0  0  0  0  0  0
   -9.4059   -9.8106   28.0837 C   0  0  0  0  0  0  0  0  0  0  0  0
  -10.5493   -9.2654   28.6587 C   0  0  0  0  0  0  0  0  0  0  0  0
  -10.3819   -9.1615   30.3694 S   0  0  0  0  0  0  0  0  0  0  0  0
   -8.8325   -9.8728   30.2405 C   0  0  0  0  0  0  0  0  0  0  0  0
   -8.4362  -10.1507   29.0212 N   0  0  0  0  0  0  0  0  0  0  0  0
   -3.9239   -7.3964   21.4102 C   0  0  0  0  0  0  0  0  0  0  0  0
   -3.1369   -8.5392   21.5449 C   0  0  0  0  0  0  0  0  0  0  0  0
   -1.7464   -8.5767   21.1623 C   0  0  0  0  0  0  0  0  0  0  0  0
   -1.1184   -7.4327   20.6235 C   0  0  0  0  0  0  0  0  0  0  0  0
    0.1776   -7.1985   20.1945 N   0  0  0  0  0  0  0  0  0  0  0  0
    0.3107   -5.9064   19.7480 C   0  0  0  0  0  0  0  0  0  0  0  0
   -0.9161   -5.2939   19.9007 C   0  0  0  0  0  0  0  0  0  0  0  0
   -1.8319   -6.2522   20.4539 C   0  0  0  0  0  0  0  0  0  0  0  0
   -3.2181   -6.2588   20.8448 C   0  0  0  0  0  0  0  0  0  0  0  0
   -5.4715   -8.6684   23.1993 H   0  0  0  0  0  0  0  0  0  0  0  0
   -7.2866   -6.8873   24.1830 H   0  0  0  0  0  0  0  0  0  0  0  0
   -8.1037   -7.4486   22.7559 H   0  0  0  0  0  0  0  0  0  0  0  0
   -8.9008   -9.4621   24.0084 H   0  0  0  0  0  0  0  0  0  0  0  0
   -9.2996   -6.5862   25.1237 H   0  0  0  0  0  0  0  0  0  0  0  0
  -10.2237   -7.3832   23.8581 H   0  0  0  0  0  0  0  0  0  0  0  0
  -11.3678   -8.4551   25.3319 H   0  0  0  0  0  0  0  0  0  0  0  0
   -7.2252   -9.5494   25.9914 H   0  0  0  0  0  0  0  0  0  0  0  0
  -10.0792  -10.1288   26.0596 H   0  0  0  0  0  0  0  0  0  0  0  0
   -8.7079  -11.0844   26.5232 H   0  0  0  0  0  0  0  0  0  0  0  0
  -11.4452   -8.9199   28.1637 H   0  0  0  0  0  0  0  0  0  0  0  0
   -8.2107  -10.0646   31.1054 H   0  0  0  0  0  0  0  0  0  0  0  0
   -3.5730   -9.4433   21.9610 H   0  0  0  0  0  0  0  0  0  0  0  0
   -1.1846   -9.4960   21.3074 H   0  0  0  0  0  0  0  0  0  0  0  0
    0.9189   -7.8836   20.2256 H   0  0  0  0  0  0  0  0  0  0  0  0
    1.2577   -5.5365   19.3800 H   0  0  0  0  0  0  0  0  0  0  0  0
   -1.1444   -4.2654   19.6535 H   0  0  0  0  0  0  0  0  0  0  0  0
   -3.7707   -5.3290   20.7088 H   0  0  0  0  0  0  0  0  0  0  0  0
  1  2  2  0
  2  3  1  0
  3  4  1  0
  4  5  1  0
  5  6  1  0
  6  7  1  0
  5  8  1  0
  8  9  1  0
  9 10  1  0
 10 11  2  0
 11 12  1  0
 12 13  1  0
 13 14  2  0
  2 15  1  0
 15 16  2  0
 16 17  1  0
 17 18  2  0
 18 19  1  0
 19 20  1  0
 20 21  2  0
 21 22  1  0
 22 23  2  0
 14 10  1  0
 23 15  1  0
 22 18  1  0
  3 24  1  0
  4 25  1  0
  4 26  1  0
  5 27  1  0
  6 28  1  0
  6 29  1  0
  7 30  1  0
  8 31  1  0
  9 32  1  0
  9 33  1  0
 11 34  1  0
 13 35  1  0
 16 36  1  0
 17 37  1  0
 19 38  1  0
 20 39  1  0
 21 40  1  0
 23 41  1  0
M  END
>  <Energy>  (1240) 
135.93656666612961

>  <compound_id>  (1240) 
47081

>  <target_id>  (1240) 
1

>  <reference_id>  (1240) 
7

>  <inspiration_ids>  (1240) 
[97, 7]

>  <energy_score>  (1240) 
-30.50033717839881

>  <distance_score>  (1240) 
15.424829027869215

>  <path>  (1240) 
/opt/xchem-fragalysis-2/maxwin/BulkDock/SCRATCH/511024/C47081-P7/C47081-P7.minimised.mol

>  <scratch_subdir>  (1240) 
/opt/xchem-fragalysis-2/maxwin/BulkDock/SCRATCH/511024/C47081-P7

>  <fragmenstein_runtime>  (1240) 
13.364223957061768

>  <fragmenstein_outcome>  (1240) 
too moved

>  <fragmenstein_mode>  (1240) 
expansion

>  <fragmenstein_error>  (1240) 


$$$$
C26231-P97
     RDKit          3D

 41 43  0  0  0  0  0  0  0  0999 V2000
    7.8304   -1.7819   20.8563 O   0  0  0  0  0  0  0  0  0  0  0  0
    7.9957   -2.8199   21.3729 C   0  0  0  0  0  0  0  0  0  0  0  0
    6.8289   -3.0209   22.6883 N   0  0  0  0  0  0  0  0  0  0  0  0
    5.6903   -1.9991   23.3474 C   0  0  0  0  0  0  0  0  0  0  0  0
    5.5689   -1.0618   24.6471 C   0  0  0  0  0  0  0  0  0  0  0  0
    6.9578   -0.7690   25.2585 C   0  0  0  0  0  0  0  0  0  0  0  0
    6.8962    0.1924   26.3062 O   0  0  0  0  0  0  0  0  0  0  0  0
    4.4277   -1.4999   25.5874 N   0  0  0  0  0  0  0  0  0  0  0  0
    3.9193   -0.4453   26.5384 C   0  0  0  0  0  0  0  0  0  0  0  0
    2.6007   -0.7558   27.3245 C   0  0  0  0  0  0  0  0  0  0  0  0
    1.9306   -1.9787   27.6012 C   0  0  0  0  0  0  0  0  0  0  0  0
    0.8187   -1.6427   28.3349 C   0  0  0  0  0  0  0  0  0  0  0  0
    0.8116   -0.3061   28.5363 O   0  0  0  0  0  0  0  0  0  0  0  0
    1.9236    0.2543   27.9196 N   0  0  0  0  0  0  0  0  0  0  0  0
    9.7309   -3.7269   20.5453 C   0  0  0  0  0  0  0  0  0  0  0  0
   11.0239   -5.0704   20.5122 C   0  0  0  0  0  0  0  0  0  0  0  0
   12.4821   -5.4818   19.8939 C   0  0  0  0  0  0  0  0  0  0  0  0
   13.2600   -4.4352   19.5204 C   0  0  0  0  0  0  0  0  0  0  0  0
   14.5503   -4.2821   19.1120 N   0  0  0  0  0  0  0  0  0  0  0  0
   15.1505   -3.3295   19.8978 C   0  0  0  0  0  0  0  0  0  0  0  0
   14.2253   -2.9236   20.8397 C   0  0  0  0  0  0  0  0  0  0  0  0
   12.9680   -3.5149   20.4925 C   0  0  0  0  0  0  0  0  0  0  0  0
   11.3986   -3.5585   21.0447 C   0  0  0  0  0  0  0  0  0  0  0  0
    6.9516   -3.9629   23.0457 H   0  0  0  0  0  0  0  0  0  0  0  0
    6.0458   -1.1815   22.6886 H   0  0  0  0  0  0  0  0  0  0  0  0
    4.7127   -2.0522   22.8319 H   0  0  0  0  0  0  0  0  0  0  0  0
    5.1984   -0.1135   24.2706 H   0  0  0  0  0  0  0  0  0  0  0  0
    7.6269   -0.3671   24.4901 H   0  0  0  0  0  0  0  0  0  0  0  0
    7.4339   -1.6674   25.6594 H   0  0  0  0  0  0  0  0  0  0  0  0
    6.5770    1.0255   25.9201 H   0  0  0  0  0  0  0  0  0  0  0  0
    3.6200   -1.7011   24.9742 H   0  0  0  0  0  0  0  0  0  0  0  0
    4.6852   -0.2601   27.2979 H   0  0  0  0  0  0  0  0  0  0  0  0
    3.7453    0.4813   25.9797 H   0  0  0  0  0  0  0  0  0  0  0  0
    2.2083   -2.9616   27.2641 H   0  0  0  0  0  0  0  0  0  0  0  0
   -0.0112   -2.1926   28.7511 H   0  0  0  0  0  0  0  0  0  0  0  0
   11.7576   -5.1738   21.5802 H   0  0  0  0  0  0  0  0  0  0  0  0
   12.9970   -6.1935   20.5618 H   0  0  0  0  0  0  0  0  0  0  0  0
   15.0363   -4.8779   18.4566 H   0  0  0  0  0  0  0  0  0  0  0  0
   16.1947   -3.0794   19.7689 H   0  0  0  0  0  0  0  0  0  0  0  0
   14.4035   -2.2156   21.6384 H   0  0  0  0  0  0  0  0  0  0  0  0
   11.5533   -3.4433   22.1575 H   0  0  0  0  0  0  0  0  0  0  0  0
  1  2  2  0
  2  3  1  0
  3  4  1  0
  4  5  1  0
  5  6  1  0
  6  7  1  0
  5  8  1  0
  8  9  1  0
  9 10  1  0
 10 11  1  0
 11 12  2  0
 12 13  1  0
 13 14  1  0
  2 15  1  0
 15 16  2  0
 16 17  1  0
 17 18  2  0
 18 19  1  0
 19 20  1  0
 20 21  2  0
 21 22  1  0
 22 23  2  0
 14 10  2  0
 23 15  1  0
 22 18  1  0
  3 24  1  0
  4 25  1  0
  4 26  1  0
  5 27  1  0
  6 28  1  0
  6 29  1  0
  7 30  1  0
  8 31  1  0
  9 32  1  0
  9 33  1  0
 11 34  1  0
 12 35  1  0
 16 36  1  0
 17 37  1  0
 19 38  1  0
 20 39  1  0
 21 40  1  0
 23 41  1  0
M  END
>  <Energy>  (1241) 
773.38526971559747

>  <compound_id>  (1241) 
26231

>  <target_id>  (1241) 
1

>  <reference_id>  (1241) 
97

>  <inspiration_ids>  (1241) 
[97, 7]

>  <energy_score>  (1241) 
685.96759456301

>  <distance_score>  (1241) 
11.0464100910936

>  <path>  (1241) 
/opt/xchem-fragalysis-2/maxwin/BulkDock/SCRATCH/511024/C26231-P97/C26231-P97.minimised.mol

>  <scratch_subdir>  (1241) 
/opt/xchem-fragalysis-2/maxwin/BulkDock/SCRATCH/511024/C26231-P97

>  <fragmenstein_runtime>  (1241) 
10.549803972244263

>  <fragmenstein_outcome>  (1241) 
too moved

>  <fragmenstein_mode>  (1241) 
expansion

>  <fragmenstein_error>  (1241) 


$$$$
C26231-P7
     RDKit          3D

 41 43  0  0  0  0  0  0  0  0999 V2000
    7.4224   -1.6380   20.8863 O   0  0  0  0  0  0  0  0  0  0  0  0
    7.6626   -2.5956   21.5178 C   0  0  0  0  0  0  0  0  0  0  0  0
    6.6211   -2.7428   22.9498 N   0  0  0  0  0  0  0  0  0  0  0  0
    5.5458   -1.8035   23.5669 C   0  0  0  0  0  0  0  0  0  0  0  0
    5.7747   -0.8611   24.8354 C   0  0  0  0  0  0  0  0  0  0  0  0
    7.2745   -0.5771   25.0535 C   0  0  0  0  0  0  0  0  0  0  0  0
    7.9385   -1.6808   25.6591 O   0  0  0  0  0  0  0  0  0  0  0  0
    5.0918   -1.2218   26.1776 N   0  0  0  0  0  0  0  0  0  0  0  0
    3.5847   -1.2100   26.0571 C   0  0  0  0  0  0  0  0  0  0  0  0
    2.7454   -1.2006   27.3721 C   0  0  0  0  0  0  0  0  0  0  0  0
    1.9001   -2.2320   27.8908 C   0  0  0  0  0  0  0  0  0  0  0  0
    1.1821   -1.6529   28.9054 C   0  0  0  0  0  0  0  0  0  0  0  0
    1.5690   -0.3631   29.0338 O   0  0  0  0  0  0  0  0  0  0  0  0
    2.5459   -0.0723   28.0841 N   0  0  0  0  0  0  0  0  0  0  0  0
    9.3896   -3.5595   20.6916 C   0  0  0  0  0  0  0  0  0  0  0  0
   11.1108   -3.5311   21.4091 C   0  0  0  0  0  0  0  0  0  0  0  0
   12.5924   -3.9238   21.6321 C   0  0  0  0  0  0  0  0  0  0  0  0
   12.9947   -4.7055   20.6517 C   0  0  0  0  0  0  0  0  0  0  0  0
   14.2252   -4.7929   20.0516 N   0  0  0  0  0  0  0  0  0  0  0  0
   14.0066   -4.5491   18.7212 C   0  0  0  0  0  0  0  0  0  0  0  0
   12.6435   -4.6666   18.5651 C   0  0  0  0  0  0  0  0  0  0  0  0
   11.9693   -5.1820   19.8713 C   0  0  0  0  0  0  0  0  0  0  0  0
   10.2609   -5.1207   20.3440 C   0  0  0  0  0  0  0  0  0  0  0  0
    6.8353   -3.6431   23.3911 H   0  0  0  0  0  0  0  0  0  0  0  0
    5.4873   -1.0784   22.7414 H   0  0  0  0  0  0  0  0  0  0  0  0
    4.5262   -2.1891   23.5927 H   0  0  0  0  0  0  0  0  0  0  0  0
    5.3349    0.1077   24.5594 H   0  0  0  0  0  0  0  0  0  0  0  0
    7.4084    0.2918   25.7077 H   0  0  0  0  0  0  0  0  0  0  0  0
    7.7733   -0.3521   24.1052 H   0  0  0  0  0  0  0  0  0  0  0  0
    7.5200   -1.8102   26.5288 H   0  0  0  0  0  0  0  0  0  0  0  0
    5.2972   -0.4496   26.8203 H   0  0  0  0  0  0  0  0  0  0  0  0
    3.2984   -2.0902   25.4795 H   0  0  0  0  0  0  0  0  0  0  0  0
    3.2966   -0.3064   25.5147 H   0  0  0  0  0  0  0  0  0  0  0  0
    1.7899   -3.2332   27.5087 H   0  0  0  0  0  0  0  0  0  0  0  0
    0.4058   -1.9851   29.5767 H   0  0  0  0  0  0  0  0  0  0  0  0
   11.1933   -3.2306   22.4793 H   0  0  0  0  0  0  0  0  0  0  0  0
   13.2111   -3.4135   22.3597 H   0  0  0  0  0  0  0  0  0  0  0  0
   15.0918   -4.5606   20.5144 H   0  0  0  0  0  0  0  0  0  0  0  0
   14.8021   -4.2508   18.0521 H   0  0  0  0  0  0  0  0  0  0  0  0
   12.1028   -4.4260   17.6560 H   0  0  0  0  0  0  0  0  0  0  0  0
    9.7642   -5.6115   19.5518 H   0  0  0  0  0  0  0  0  0  0  0  0
  1  2  2  0
  2  3  1  0
  3  4  1  0
  4  5  1  0
  5  6  1  0
  6  7  1  0
  5  8  1  0
  8  9  1  0
  9 10  1  0
 10 11  1  0
 11 12  2  0
 12 13  1  0
 13 14  1  0
  2 15  1  0
 15 16  2  0
 16 17  1  0
 17 18  2  0
 18 19  1  0
 19 20  1  0
 20 21  2  0
 21 22  1  0
 22 23  2  0
 14 10  2  0
 23 15  1  0
 22 18  1  0
  3 24  1  0
  4 25  1  0
  4 26  1  0
  5 27  1  0
  6 28  1  0
  6 29  1  0
  7 30  1  0
  8 31  1  0
  9 32  1  0
  9 33  1  0
 11 34  1  0
 12 35  1  0
 16 36  1  0
 17 37  1  0
 19 38  1  0
 20 39  1  0
 21 40  1  0
 23 41  1  0
M  END
>  <Energy>  (1242) 
642.90786390454628

>  <compound_id>  (1242) 
26231

>  <target_id>  (1242) 
1

>  <reference_id>  (1242) 
7

>  <inspiration_ids>  (1242) 
[97, 7]

>  <energy_score>  (1242) 
555.4901887519586

>  <distance_score>  (1242) 
11.178895037101624

>  <path>  (1242) 
/opt/xchem-fragalysis-2/maxwin/BulkDock/SCRATCH/511024/C26231-P7/C26231-P7.minimised.mol

>  <scratch_subdir>  (1242) 
/opt/xchem-fragalysis-2/maxwin/BulkDock/SCRATCH/511024/C26231-P7

>  <fragmenstein_runtime>  (1242) 
9.891329288482666

>  <fragmenstein_outcome>  (1242) 
too moved

>  <fragmenstein_mode>  (1242) 
expansion

>  <fragmenstein_error>  (1242) 


$$$$
C26232-P97
     RDKit          3D

 33 35  0  0  0  0  0  0  0  0999 V2000
    4.2312    1.1595   25.4198 C   0  0  0  0  0  0  0  0  0  0  0  0
    4.4083   -0.2917   25.5269 N   0  0  0  0  0  0  0  0  0  0  0  0
    5.8051   -0.6702   25.0583 C   0  0  0  0  0  0  0  0  0  0  0  0
    6.1847   -0.4291   23.5737 C   0  0  0  0  0  0  0  0  0  0  0  0
    5.5762   -1.1791   22.5577 C   0  0  0  0  0  0  0  0  0  0  0  0
    5.8326   -0.9560   21.1918 C   0  0  0  0  0  0  0  0  0  0  0  0
    6.7825    0.0099   20.8456 C   0  0  0  0  0  0  0  0  0  0  0  0
    7.1721    0.4778   19.6101 N   0  0  0  0  0  0  0  0  0  0  0  0
    8.1658    1.4069   19.7501 C   0  0  0  0  0  0  0  0  0  0  0  0
    8.4031    1.5629   21.0995 C   0  0  0  0  0  0  0  0  0  0  0  0
    7.4923    0.7234   21.8096 C   0  0  0  0  0  0  0  0  0  0  0  0
    7.1782    0.5080   23.1844 C   0  0  0  0  0  0  0  0  0  0  0  0
    4.1272   -0.7352   26.9404 C   0  0  0  0  0  0  0  0  0  0  0  0
    2.6776   -0.5725   27.5152 C   0  0  0  0  0  0  0  0  0  0  0  0
    1.6547   -1.5643   27.6214 C   0  0  0  0  0  0  0  0  0  0  0  0
    0.6323   -0.9786   28.3238 C   0  0  0  0  0  0  0  0  0  0  0  0
    1.0031    0.2754   28.6700 O   0  0  0  0  0  0  0  0  0  0  0  0
    2.2855    0.5306   28.1885 N   0  0  0  0  0  0  0  0  0  0  0  0
    3.1987    1.4470   25.6423 H   0  0  0  0  0  0  0  0  0  0  0  0
    4.8967    1.7037   26.0997 H   0  0  0  0  0  0  0  0  0  0  0  0
    4.4255    1.5157   24.4030 H   0  0  0  0  0  0  0  0  0  0  0  0
    6.5427   -0.1649   25.6959 H   0  0  0  0  0  0  0  0  0  0  0  0
    5.9375   -1.7463   25.2321 H   0  0  0  0  0  0  0  0  0  0  0  0
    4.8161   -1.9116   22.8314 H   0  0  0  0  0  0  0  0  0  0  0  0
    5.2762   -1.5093   20.4414 H   0  0  0  0  0  0  0  0  0  0  0  0
    6.7314    0.2114   18.7410 H   0  0  0  0  0  0  0  0  0  0  0  0
    8.5904    1.9074   18.8905 H   0  0  0  0  0  0  0  0  0  0  0  0
    9.1131    2.2510   21.5402 H   0  0  0  0  0  0  0  0  0  0  0  0
    7.6985    1.0899   23.9407 H   0  0  0  0  0  0  0  0  0  0  0  0
    4.3489   -1.8092   26.9993 H   0  0  0  0  0  0  0  0  0  0  0  0
    4.8200   -0.2335   27.6295 H   0  0  0  0  0  0  0  0  0  0  0  0
    1.6813   -2.5655   27.2228 H   0  0  0  0  0  0  0  0  0  0  0  0
   -0.3498   -1.2926   28.6425 H   0  0  0  0  0  0  0  0  0  0  0  0
  1  2  1  0
  2  3  1  0
  3  4  1  0
  4  5  2  0
  5  6  1  0
  6  7  2  0
  7  8  1  0
  8  9  1  0
  9 10  2  0
 10 11  1  0
 11 12  2  0
  2 13  1  0
 13 14  1  0
 14 15  1  0
 15 16  2  0
 16 17  1  0
 17 18  1  0
 12  4  1  0
 18 14  2  0
 11  7  1  0
  1 19  1  0
  1 20  1  0
  1 21  1  0
  3 22  1  0
  3 23  1  0
  5 24  1  0
  6 25  1  0
  8 26  1  0
  9 27  1  0
 10 28  1  0
 12 29  1  0
 13 30  1  0
 13 31  1  0
 15 32  1  0
 16 33  1  0
M  END
>  <Energy>  (1243) 
44.306820197207593

>  <compound_id>  (1243) 
26232

>  <target_id>  (1243) 
1

>  <reference_id>  (1243) 
97

>  <inspiration_ids>  (1243) 
[97, 7]

>  <energy_score>  (1243) 
-25.560516480158242

>  <distance_score>  (1243) 
12.313697626199154

>  <path>  (1243) 
/opt/xchem-fragalysis-2/maxwin/BulkDock/SCRATCH/511024/C26232-P97/C26232-P97.minimised.mol

>  <scratch_subdir>  (1243) 
/opt/xchem-fragalysis-2/maxwin/BulkDock/SCRATCH/511024/C26232-P97

>  <fragmenstein_runtime>  (1243) 
5.943094253540039

>  <fragmenstein_outcome>  (1243) 
too moved

>  <fragmenstein_mode>  (1243) 
expansion

>  <fragmenstein_error>  (1243) 


$$$$
C26232-P7
     RDKit          3D

 33 35  0  0  0  0  0  0  0  0999 V2000
    6.8220   -3.4941   21.6395 C   0  0  0  0  0  0  0  0  0  0  0  0
    7.5898   -4.6306   20.9725 N   0  0  0  0  0  0  0  0  0  0  0  0
    9.4320   -4.7954   20.2771 C   0  0  0  0  0  0  0  0  0  0  0  0
   11.3342   -4.8083   20.8371 C   0  0  0  0  0  0  0  0  0  0  0  0
   12.2782   -5.2667   19.9122 C   0  0  0  0  0  0  0  0  0  0  0  0
   13.2077   -4.4509   19.2146 C   0  0  0  0  0  0  0  0  0  0  0  0
   13.8348   -3.5656   20.0515 C   0  0  0  0  0  0  0  0  0  0  0  0
   14.9154   -2.7488   19.8513 N   0  0  0  0  0  0  0  0  0  0  0  0
   15.2194   -2.1030   21.0167 C   0  0  0  0  0  0  0  0  0  0  0  0
   14.2962   -2.4943   21.9649 C   0  0  0  0  0  0  0  0  0  0  0  0
   13.3756   -3.3983   21.3548 C   0  0  0  0  0  0  0  0  0  0  0  0
   12.0944   -3.9965   21.7317 C   0  0  0  0  0  0  0  0  0  0  0  0
    6.3317   -5.5898   20.6441 C   0  0  0  0  0  0  0  0  0  0  0  0
    5.0365   -5.4814   21.6756 C   0  0  0  0  0  0  0  0  0  0  0  0
    3.7857   -4.8128   21.4515 C   0  0  0  0  0  0  0  0  0  0  0  0
    3.0841   -4.9394   22.6227 C   0  0  0  0  0  0  0  0  0  0  0  0
    3.8131   -5.6622   23.5044 O   0  0  0  0  0  0  0  0  0  0  0  0
    5.0320   -6.0196   22.9163 N   0  0  0  0  0  0  0  0  0  0  0  0
    5.8864   -3.2575   21.1109 H   0  0  0  0  0  0  0  0  0  0  0  0
    6.4991   -3.7923   22.6461 H   0  0  0  0  0  0  0  0  0  0  0  0
    7.2608   -2.5047   21.7230 H   0  0  0  0  0  0  0  0  0  0  0  0
    9.6439   -5.5536   19.5478 H   0  0  0  0  0  0  0  0  0  0  0  0
    9.1411   -3.7625   20.2137 H   0  0  0  0  0  0  0  0  0  0  0  0
   12.9184   -5.9382   20.5472 H   0  0  0  0  0  0  0  0  0  0  0  0
   13.5699   -4.6773   18.2252 H   0  0  0  0  0  0  0  0  0  0  0  0
   15.4274   -2.6678   18.9843 H   0  0  0  0  0  0  0  0  0  0  0  0
   16.0499   -1.4134   21.0748 H   0  0  0  0  0  0  0  0  0  0  0  0
   14.2298   -2.1140   22.9754 H   0  0  0  0  0  0  0  0  0  0  0  0
   11.7299   -3.6821   22.6983 H   0  0  0  0  0  0  0  0  0  0  0  0
    6.5193   -6.6689   20.6283 H   0  0  0  0  0  0  0  0  0  0  0  0
    5.9648   -5.3095   19.6536 H   0  0  0  0  0  0  0  0  0  0  0  0
    3.4792   -4.2804   20.5642 H   0  0  0  0  0  0  0  0  0  0  0  0
    2.1236   -4.5900   22.9579 H   0  0  0  0  0  0  0  0  0  0  0  0
  1  2  1  0
  2  3  1  0
  3  4  1  0
  4  5  2  0
  5  6  1  0
  6  7  2  0
  7  8  1  0
  8  9  1  0
  9 10  2  0
 10 11  1  0
 11 12  2  0
  2 13  1  0
 13 14  1  0
 14 15  1  0
 15 16  2  0
 16 17  1  0
 17 18  1  0
 12  4  1  0
 18 14  2  0
 11  7  1  0
  1 19  1  0
  1 20  1  0
  1 21  1  0
  3 22  1  0
  3 23  1  0
  5 24  1  0
  6 25  1  0
  8 26  1  0
  9 27  1  0
 10 28  1  0
 12 29  1  0
 13 30  1  0
 13 31  1  0
 15 32  1  0
 16 33  1  0
M  END
>  <Energy>  (1244) 
365.7116477529176

>  <compound_id>  (1244) 
26232

>  <target_id>  (1244) 
1

>  <reference_id>  (1244) 
7

>  <inspiration_ids>  (1244) 
[97, 7]

>  <energy_score>  (1244) 
295.8443110755542

>  <distance_score>  (1244) 
14.237778074176054

>  <path>  (1244) 
/opt/xchem-fragalysis-2/maxwin/BulkDock/SCRATCH/511024/C26232-P7/C26232-P7.minimised.mol

>  <scratch_subdir>  (1244) 
/opt/xchem-fragalysis-2/maxwin/BulkDock/SCRATCH/511024/C26232-P7

>  <fragmenstein_runtime>  (1244) 
4.295201301574707

>  <fragmenstein_outcome>  (1244) 
too moved

>  <fragmenstein_mode>  (1244) 
expansion

>  <fragmenstein_error>  (1244) 


$$$$
C8332-P97
     RDKit          3D

 40 42  0  0  0  0  0  0  0  0999 V2000
   14.4148   -2.6800   21.3713 C   0  0  0  0  0  0  0  0  0  0  0  0
   13.3010   -3.5778   21.4963 O   0  0  0  0  0  0  0  0  0  0  0  0
   12.6018   -3.8941   20.2189 C   0  0  0  0  0  0  0  0  0  0  0  0
   11.7528   -4.9936   20.5696 C   0  0  0  0  0  0  0  0  0  0  0  0
    9.7863   -5.1261   20.2253 C   0  0  0  0  0  0  0  0  0  0  0  0
    7.9275   -4.5129   20.7739 N   0  0  0  0  0  0  0  0  0  0  0  0
    6.4975   -5.1045   20.2971 C   0  0  0  0  0  0  0  0  0  0  0  0
    7.3929   -4.1715   22.3649 C   0  0  0  0  0  0  0  0  0  0  0  0
    5.8844   -3.9903   22.9816 C   0  0  0  0  0  0  0  0  0  0  0  0
    5.3254   -5.0436   23.7406 C   0  0  0  0  0  0  0  0  0  0  0  0
    4.2855   -4.8110   24.6626 C   0  0  0  0  0  0  0  0  0  0  0  0
    3.8020   -3.5274   24.8246 C   0  0  0  0  0  0  0  0  0  0  0  0
    4.3212   -2.5498   23.9979 C   0  0  0  0  0  0  0  0  0  0  0  0
    5.3510   -2.7413   23.1091 N   0  0  0  0  0  0  0  0  0  0  0  0
   12.7016   -6.0014   20.9793 C   0  0  0  0  0  0  0  0  0  0  0  0
   14.1176   -5.9914   20.5914 C   0  0  0  0  0  0  0  0  0  0  0  0
   14.4166   -5.1708   19.4915 C   0  0  0  0  0  0  0  0  0  0  0  0
   15.4434   -5.1054   18.5845 N   0  0  0  0  0  0  0  0  0  0  0  0
   15.1537   -4.1654   17.6208 C   0  0  0  0  0  0  0  0  0  0  0  0
   13.9848   -3.5316   17.9832 C   0  0  0  0  0  0  0  0  0  0  0  0
   13.5245   -4.1547   19.1725 C   0  0  0  0  0  0  0  0  0  0  0  0
   14.2793   -1.9348   20.5812 H   0  0  0  0  0  0  0  0  0  0  0  0
   15.3404   -3.2402   21.2129 H   0  0  0  0  0  0  0  0  0  0  0  0
   14.5207   -2.1496   22.3230 H   0  0  0  0  0  0  0  0  0  0  0  0
    9.7628   -5.6481   19.2750 H   0  0  0  0  0  0  0  0  0  0  0  0
    9.4291   -4.0204   20.2300 H   0  0  0  0  0  0  0  0  0  0  0  0
    5.7340   -4.3287   20.4314 H   0  0  0  0  0  0  0  0  0  0  0  0
    6.1969   -5.9555   20.9230 H   0  0  0  0  0  0  0  0  0  0  0  0
    6.4186   -5.4006   19.2504 H   0  0  0  0  0  0  0  0  0  0  0  0
    7.8427   -3.2090   22.6222 H   0  0  0  0  0  0  0  0  0  0  0  0
    7.7408   -4.9953   22.9975 H   0  0  0  0  0  0  0  0  0  0  0  0
    5.7600   -6.0381   23.6810 H   0  0  0  0  0  0  0  0  0  0  0  0
    3.9035   -5.6247   25.2709 H   0  0  0  0  0  0  0  0  0  0  0  0
    3.0474   -3.2863   25.5601 H   0  0  0  0  0  0  0  0  0  0  0  0
    3.9413   -1.5323   24.0432 H   0  0  0  0  0  0  0  0  0  0  0  0
   12.4591   -6.8993   21.5472 H   0  0  0  0  0  0  0  0  0  0  0  0
   14.7902   -6.7748   20.9269 H   0  0  0  0  0  0  0  0  0  0  0  0
   16.2476   -5.7188   18.5784 H   0  0  0  0  0  0  0  0  0  0  0  0
   15.8259   -4.0057   16.7880 H   0  0  0  0  0  0  0  0  0  0  0  0
   13.5397   -2.6912   17.4698 H   0  0  0  0  0  0  0  0  0  0  0  0
  1  2  1  0
  2  3  1  0
  3  4  2  0
  4  5  1  0
  5  6  1  0
  6  7  1  0
  6  8  1  0
  8  9  1  0
  9 10  2  0
 10 11  1  0
 11 12  2  0
 12 13  1  0
 13 14  2  0
  4 15  1  0
 15 16  2  0
 16 17  1  0
 17 18  1  0
 18 19  1  0
 19 20  2  0
 20 21  1  0
 21  3  1  0
 14  9  1  0
 21 17  2  0
  1 22  1  0
  1 23  1  0
  1 24  1  0
  5 25  1  0
  5 26  1  0
  7 27  1  0
  7 28  1  0
  7 29  1  0
  8 30  1  0
  8 31  1  0
 10 32  1  0
 11 33  1  0
 12 34  1  0
 13 35  1  0
 15 36  1  0
 16 37  1  0
 18 38  1  0
 19 39  1  0
 20 40  1  0
M  END
>  <Energy>  (1245) 
476.79234922446614

>  <compound_id>  (1245) 
8332

>  <target_id>  (1245) 
1

>  <reference_id>  (1245) 
97

>  <inspiration_ids>  (1245) 
[97, 7]

>  <energy_score>  (1245) 
367.91981095350786

>  <distance_score>  (1245) 
14.301907739396313

>  <path>  (1245) 
/opt/xchem-fragalysis-2/maxwin/BulkDock/SCRATCH/511024/C8332-P97/C8332-P97.minimised.mol

>  <scratch_subdir>  (1245) 
/opt/xchem-fragalysis-2/maxwin/BulkDock/SCRATCH/511024/C8332-P97

>  <fragmenstein_runtime>  (1245) 
4.867748737335205

>  <fragmenstein_outcome>  (1245) 
too moved

>  <fragmenstein_mode>  (1245) 
expansion

>  <fragmenstein_error>  (1245) 


$$$$
C8332-P7
     RDKit          3D

 40 42  0  0  0  0  0  0  0  0999 V2000
    9.9315   -8.5797   21.6619 C   0  0  0  0  0  0  0  0  0  0  0  0
   10.0956   -7.2253   22.1005 O   0  0  0  0  0  0  0  0  0  0  0  0
   11.1030   -6.5683   21.4189 C   0  0  0  0  0  0  0  0  0  0  0  0
   10.8324   -5.3469   20.5223 C   0  0  0  0  0  0  0  0  0  0  0  0
    9.1424   -4.2171   20.5024 C   0  0  0  0  0  0  0  0  0  0  0  0
    7.4987   -4.2267   21.4774 N   0  0  0  0  0  0  0  0  0  0  0  0
    6.9509   -2.9493   22.0164 C   0  0  0  0  0  0  0  0  0  0  0  0
    6.9543   -5.2716   22.5658 C   0  0  0  0  0  0  0  0  0  0  0  0
    5.7378   -4.9581   23.6441 C   0  0  0  0  0  0  0  0  0  0  0  0
    5.9391   -4.1520   24.7831 C   0  0  0  0  0  0  0  0  0  0  0  0
    4.9379   -4.0111   25.7660 C   0  0  0  0  0  0  0  0  0  0  0  0
    3.7572   -4.7188   25.6401 C   0  0  0  0  0  0  0  0  0  0  0  0
    3.6221   -5.5116   24.5127 C   0  0  0  0  0  0  0  0  0  0  0  0
    4.5620   -5.6397   23.5272 N   0  0  0  0  0  0  0  0  0  0  0  0
   12.1630   -4.5929   20.4303 C   0  0  0  0  0  0  0  0  0  0  0  0
   13.4558   -4.9705   20.7767 C   0  0  0  0  0  0  0  0  0  0  0  0
   13.5410   -6.1116   21.5204 C   0  0  0  0  0  0  0  0  0  0  0  0
   14.6740   -6.6814   22.0410 N   0  0  0  0  0  0  0  0  0  0  0  0
   14.3327   -7.7363   22.8269 C   0  0  0  0  0  0  0  0  0  0  0  0
   12.9638   -7.8550   22.7871 C   0  0  0  0  0  0  0  0  0  0  0  0
   12.4373   -6.8734   21.8939 C   0  0  0  0  0  0  0  0  0  0  0  0
    9.8191   -8.6472   20.5762 H   0  0  0  0  0  0  0  0  0  0  0  0
    9.0114   -8.9612   22.1157 H   0  0  0  0  0  0  0  0  0  0  0  0
   10.7497   -9.2226   21.9917 H   0  0  0  0  0  0  0  0  0  0  0  0
    9.4013   -3.2360   20.5148 H   0  0  0  0  0  0  0  0  0  0  0  0
    8.6139   -4.1334   19.6527 H   0  0  0  0  0  0  0  0  0  0  0  0
    7.3845   -2.7142   22.9917 H   0  0  0  0  0  0  0  0  0  0  0  0
    7.0005   -2.0286   21.4393 H   0  0  0  0  0  0  0  0  0  0  0  0
    5.8631   -3.0428   22.1213 H   0  0  0  0  0  0  0  0  0  0  0  0
    7.7567   -5.6190   23.2237 H   0  0  0  0  0  0  0  0  0  0  0  0
    6.5467   -6.1156   21.9974 H   0  0  0  0  0  0  0  0  0  0  0  0
    6.8917   -3.6536   24.9319 H   0  0  0  0  0  0  0  0  0  0  0  0
    5.1090   -3.3766   26.6306 H   0  0  0  0  0  0  0  0  0  0  0  0
    2.9825   -4.6530   26.3922 H   0  0  0  0  0  0  0  0  0  0  0  0
    2.7340   -6.1126   24.3464 H   0  0  0  0  0  0  0  0  0  0  0  0
   12.2334   -3.5390   20.1437 H   0  0  0  0  0  0  0  0  0  0  0  0
   14.3066   -4.3250   20.5892 H   0  0  0  0  0  0  0  0  0  0  0  0
   15.6131   -6.3350   21.8982 H   0  0  0  0  0  0  0  0  0  0  0  0
   15.0823   -8.3042   23.3615 H   0  0  0  0  0  0  0  0  0  0  0  0
   12.3988   -8.5969   23.3346 H   0  0  0  0  0  0  0  0  0  0  0  0
  1  2  1  0
  2  3  1  0
  3  4  2  0
  4  5  1  0
  5  6  1  0
  6  7  1  0
  6  8  1  0
  8  9  1  0
  9 10  2  0
 10 11  1  0
 11 12  2  0
 12 13  1  0
 13 14  2  0
  4 15  1  0
 15 16  2  0
 16 17  1  0
 17 18  1  0
 18 19  1  0
 19 20  2  0
 20 21  1  0
 21  3  1  0
 14  9  1  0
 21 17  2  0
  1 22  1  0
  1 23  1  0
  1 24  1  0
  5 25  1  0
  5 26  1  0
  7 27  1  0
  7 28  1  0
  7 29  1  0
  8 30  1  0
  8 31  1  0
 10 32  1  0
 11 33  1  0
 12 34  1  0
 13 35  1  0
 15 36  1  0
 16 37  1  0
 18 38  1  0
 19 39  1  0
 20 40  1  0
M  END
>  <Energy>  (1246) 
318.7512458644905

>  <compound_id>  (1246) 
8332

>  <target_id>  (1246) 
1

>  <reference_id>  (1246) 
7

>  <inspiration_ids>  (1246) 
[97, 7]

>  <energy_score>  (1246) 
209.87870759353035

>  <distance_score>  (1246) 
15.008177528145891

>  <path>  (1246) 
/opt/xchem-fragalysis-2/maxwin/BulkDock/SCRATCH/511024/C8332-P7/C8332-P7.minimised.mol

>  <scratch_subdir>  (1246) 
/opt/xchem-fragalysis-2/maxwin/BulkDock/SCRATCH/511024/C8332-P7

>  <fragmenstein_runtime>  (1246) 
7.120495557785034

>  <fragmenstein_outcome>  (1246) 
too moved

>  <fragmenstein_mode>  (1246) 
expansion

>  <fragmenstein_error>  (1246) 


$$$$
C47084-P97
     RDKit          3D

 39 41  0  0  0  0  0  0  0  0999 V2000
    1.6895   -1.9771   27.6303 C   0  0  0  0  0  0  0  0  0  0  0  0
    2.6382   -0.8418   27.1631 C   0  0  0  0  0  0  0  0  0  0  0  0
    1.9155    0.5306   27.1823 C   0  0  0  0  0  0  0  0  0  0  0  0
    1.0522    0.7504   28.3285 N   0  0  0  0  0  0  0  0  0  0  0  0
   -0.3834    0.7530   28.4422 C   0  0  0  0  0  0  0  0  0  0  0  0
   -1.2310    0.6528   27.6060 O   0  0  0  0  0  0  0  0  0  0  0  0
   -0.8405    0.9296   29.8488 C   0  0  0  0  0  0  0  0  0  0  0  0
   -0.1470    1.4536   30.9221 C   0  0  0  0  0  0  0  0  0  0  0  0
   -0.9587    1.4477   32.0163 O   0  0  0  0  0  0  0  0  0  0  0  0
   -2.1280    0.9289   31.5572 C   0  0  0  0  0  0  0  0  0  0  0  0
   -2.1289    0.6086   30.2856 N   0  0  0  0  0  0  0  0  0  0  0  0
    3.3375   -1.0289   25.8634 N   0  0  0  0  0  0  0  0  0  0  0  0
    4.7163   -0.7671   25.4761 C   0  0  0  0  0  0  0  0  0  0  0  0
    5.6569   -0.4090   26.1303 O   0  0  0  0  0  0  0  0  0  0  0  0
    5.0740   -0.8427   23.9645 C   0  0  0  0  0  0  0  0  0  0  0  0
    4.3258   -1.4992   22.9837 C   0  0  0  0  0  0  0  0  0  0  0  0
    4.6614   -1.4224   21.6074 C   0  0  0  0  0  0  0  0  0  0  0  0
    5.7721   -0.6574   21.2197 C   0  0  0  0  0  0  0  0  0  0  0  0
    6.2338   -0.3084   19.9680 N   0  0  0  0  0  0  0  0  0  0  0  0
    7.3905    0.4224   20.0712 C   0  0  0  0  0  0  0  0  0  0  0  0
    7.6503    0.5924   21.4149 C   0  0  0  0  0  0  0  0  0  0  0  0
    6.6100   -0.0561   22.1513 C   0  0  0  0  0  0  0  0  0  0  0  0
    6.2591   -0.1675   23.5255 C   0  0  0  0  0  0  0  0  0  0  0  0
    0.7037   -1.8958   27.1765 H   0  0  0  0  0  0  0  0  0  0  0  0
    2.1170   -2.9545   27.3892 H   0  0  0  0  0  0  0  0  0  0  0  0
    1.5498   -1.9318   28.7160 H   0  0  0  0  0  0  0  0  0  0  0  0
    3.4440   -0.7913   27.9073 H   0  0  0  0  0  0  0  0  0  0  0  0
    2.6539    1.3398   27.1704 H   0  0  0  0  0  0  0  0  0  0  0  0
    1.2973    0.6370   26.2843 H   0  0  0  0  0  0  0  0  0  0  0  0
    1.4560    0.7728   29.2534 H   0  0  0  0  0  0  0  0  0  0  0  0
    0.8404    1.8625   31.0771 H   0  0  0  0  0  0  0  0  0  0  0  0
   -2.9332    0.8341   32.2728 H   0  0  0  0  0  0  0  0  0  0  0  0
    2.8311   -1.3977   25.0619 H   0  0  0  0  0  0  0  0  0  0  0  0
    3.4427   -2.0763   23.2501 H   0  0  0  0  0  0  0  0  0  0  0  0
    4.0307   -1.9125   20.8701 H   0  0  0  0  0  0  0  0  0  0  0  0
    5.7731   -0.5739   19.1080 H   0  0  0  0  0  0  0  0  0  0  0  0
    7.8991    0.7923   19.1915 H   0  0  0  0  0  0  0  0  0  0  0  0
    8.4705    1.1607   21.8362 H   0  0  0  0  0  0  0  0  0  0  0  0
    6.8867    0.3373   24.2586 H   0  0  0  0  0  0  0  0  0  0  0  0
  1  2  1  0
  2  3  1  0
  3  4  1  0
  4  5  1  0
  5  6  2  0
  5  7  1  0
  7  8  2  0
  8  9  1  0
  9 10  1  0
 10 11  2  0
  2 12  1  0
 12 13  1  0
 13 14  2  0
 13 15  1  0
 15 16  2  0
 16 17  1  0
 17 18  2  0
 18 19  1  0
 19 20  1  0
 20 21  2  0
 21 22  1  0
 22 23  2  0
 11  7  1  0
 23 15  1  0
 22 18  1  0
  1 24  1  0
  1 25  1  0
  1 26  1  0
  2 27  1  0
  3 28  1  0
  3 29  1  0
  4 30  1  0
  8 31  1  0
 10 32  1  0
 12 33  1  0
 16 34  1  0
 17 35  1  0
 19 36  1  0
 20 37  1  0
 21 38  1  0
 23 39  1  0
M  END
>  <Energy>  (1247) 
62.743298285873507

>  <compound_id>  (1247) 
47084

>  <target_id>  (1247) 
1

>  <reference_id>  (1247) 
97

>  <inspiration_ids>  (1247) 
[97, 7]

>  <energy_score>  (1247) 
3.186661385417324

>  <distance_score>  (1247) 
13.095006145070082

>  <path>  (1247) 
/opt/xchem-fragalysis-2/maxwin/BulkDock/SCRATCH/511024/C47084-P97/C47084-P97.minimised.mol

>  <scratch_subdir>  (1247) 
/opt/xchem-fragalysis-2/maxwin/BulkDock/SCRATCH/511024/C47084-P97

>  <fragmenstein_runtime>  (1247) 
20.896384716033936

>  <fragmenstein_outcome>  (1247) 
too moved

>  <fragmenstein_mode>  (1247) 
expansion

>  <fragmenstein_error>  (1247) 


$$$$
C47084-P7
     RDKit          3D

 39 41  0  0  0  0  0  0  0  0999 V2000
    1.2500   -0.7220   27.7203 C   0  0  0  0  0  0  0  0  0  0  0  0
    2.6510   -1.3797   27.6038 C   0  0  0  0  0  0  0  0  0  0  0  0
    2.5812   -2.8523   28.0697 C   0  0  0  0  0  0  0  0  0  0  0  0
    1.8623   -3.0627   29.3161 N   0  0  0  0  0  0  0  0  0  0  0  0
    2.2230   -3.7750   30.4935 C   0  0  0  0  0  0  0  0  0  0  0  0
    3.1783   -4.4515   30.7353 O   0  0  0  0  0  0  0  0  0  0  0  0
    1.1849   -3.6079   31.5278 C   0  0  0  0  0  0  0  0  0  0  0  0
    1.2931   -4.0210   32.8372 C   0  0  0  0  0  0  0  0  0  0  0  0
    0.1489   -3.6873   33.4897 O   0  0  0  0  0  0  0  0  0  0  0  0
   -0.6101   -3.0782   32.5387 C   0  0  0  0  0  0  0  0  0  0  0  0
   -0.0578   -2.9968   31.3458 N   0  0  0  0  0  0  0  0  0  0  0  0
    3.3106   -1.2549   26.2736 N   0  0  0  0  0  0  0  0  0  0  0  0
    4.7077   -1.0607   25.9173 C   0  0  0  0  0  0  0  0  0  0  0  0
    5.6712   -0.8727   26.6075 O   0  0  0  0  0  0  0  0  0  0  0  0
    5.0632   -1.0351   24.4142 C   0  0  0  0  0  0  0  0  0  0  0  0
    4.3901   -1.7651   23.4307 C   0  0  0  0  0  0  0  0  0  0  0  0
    4.7554   -1.6927   22.0651 C   0  0  0  0  0  0  0  0  0  0  0  0
    5.8188   -0.8565   21.6954 C   0  0  0  0  0  0  0  0  0  0  0  0
    6.3041   -0.5229   20.4508 N   0  0  0  0  0  0  0  0  0  0  0  0
    7.3797    0.3187   20.5640 C   0  0  0  0  0  0  0  0  0  0  0  0
    7.5862    0.5440   21.9083 C   0  0  0  0  0  0  0  0  0  0  0  0
    6.5769   -0.1647   22.6332 C   0  0  0  0  0  0  0  0  0  0  0  0
    6.1991   -0.2732   24.0000 C   0  0  0  0  0  0  0  0  0  0  0  0
    1.0230   -0.4865   28.7657 H   0  0  0  0  0  0  0  0  0  0  0  0
    0.4627   -1.3808   27.3547 H   0  0  0  0  0  0  0  0  0  0  0  0
    1.2183    0.2139   27.1536 H   0  0  0  0  0  0  0  0  0  0  0  0
    3.3133   -0.8451   28.2970 H   0  0  0  0  0  0  0  0  0  0  0  0
    2.0613   -3.4492   27.3174 H   0  0  0  0  0  0  0  0  0  0  0  0
    3.5901   -3.2657   28.1767 H   0  0  0  0  0  0  0  0  0  0  0  0
    0.9334   -2.6627   29.4428 H   0  0  0  0  0  0  0  0  0  0  0  0
    2.0599   -4.5129   33.4172 H   0  0  0  0  0  0  0  0  0  0  0  0
   -1.5819   -2.7259   32.8581 H   0  0  0  0  0  0  0  0  0  0  0  0
    2.7796   -1.4712   25.4321 H   0  0  0  0  0  0  0  0  0  0  0  0
    3.5607   -2.4160   23.6995 H   0  0  0  0  0  0  0  0  0  0  0  0
    4.1936   -2.2523   21.3221 H   0  0  0  0  0  0  0  0  0  0  0  0
    5.9262   -0.8954   19.5900 H   0  0  0  0  0  0  0  0  0  0  0  0
    7.8714    0.7082   19.6857 H   0  0  0  0  0  0  0  0  0  0  0  0
    8.3400    1.1923   22.3375 H   0  0  0  0  0  0  0  0  0  0  0  0
    6.7700    0.2750   24.7477 H   0  0  0  0  0  0  0  0  0  0  0  0
  1  2  1  0
  2  3  1  0
  3  4  1  0
  4  5  1  0
  5  6  2  0
  5  7  1  0
  7  8  2  0
  8  9  1  0
  9 10  1  0
 10 11  2  0
  2 12  1  0
 12 13  1  0
 13 14  2  0
 13 15  1  0
 15 16  2  0
 16 17  1  0
 17 18  2  0
 18 19  1  0
 19 20  1  0
 20 21  2  0
 21 22  1  0
 22 23  2  0
 11  7  1  0
 23 15  1  0
 22 18  1  0
  1 24  1  0
  1 25  1  0
  1 26  1  0
  2 27  1  0
  3 28  1  0
  3 29  1  0
  4 30  1  0
  8 31  1  0
 10 32  1  0
 12 33  1  0
 16 34  1  0
 17 35  1  0
 19 36  1  0
 20 37  1  0
 21 38  1  0
 23 39  1  0
M  END
>  <Energy>  (1248) 
46.98334528815456

>  <compound_id>  (1248) 
47084

>  <target_id>  (1248) 
1

>  <reference_id>  (1248) 
7

>  <inspiration_ids>  (1248) 
[97, 7]

>  <energy_score>  (1248) 
-12.573291612302228

>  <distance_score>  (1248) 
13.472162693291738

>  <path>  (1248) 
/opt/xchem-fragalysis-2/maxwin/BulkDock/SCRATCH/511024/C47084-P7/C47084-P7.minimised.mol

>  <scratch_subdir>  (1248) 
/opt/xchem-fragalysis-2/maxwin/BulkDock/SCRATCH/511024/C47084-P7

>  <fragmenstein_runtime>  (1248) 
22.181171655654907

>  <fragmenstein_outcome>  (1248) 
too moved

>  <fragmenstein_mode>  (1248) 
expansion

>  <fragmenstein_error>  (1248) 


$$$$
C48223-P97
     RDKit          3D

 42 44  0  0  0  0  0  0  0  0999 V2000
    1.2817   -2.5762   28.1047 C   0  0  0  0  0  0  0  0  0  0  0  0
    2.0195   -1.2581   27.7523 C   0  0  0  0  0  0  0  0  0  0  0  0
    1.0274   -0.0539   27.8410 C   0  0  0  0  0  0  0  0  0  0  0  0
    0.0379   -0.1454   28.9269 N   0  0  0  0  0  0  0  0  0  0  0  0
   -0.4920    0.8589   29.8054 C   0  0  0  0  0  0  0  0  0  0  0  0
   -0.2076    2.0135   29.9331 O   0  0  0  0  0  0  0  0  0  0  0  0
   -1.5499    0.3429   30.7582 C   0  0  0  0  0  0  0  0  0  0  0  0
   -1.4380   -0.9046   31.3741 C   0  0  0  0  0  0  0  0  0  0  0  0
   -2.4198   -1.2757   32.2853 C   0  0  0  0  0  0  0  0  0  0  0  0
   -3.4864   -0.5102   32.6127 N   0  0  0  0  0  0  0  0  0  0  0  0
   -3.5557    0.7073   32.0351 C   0  0  0  0  0  0  0  0  0  0  0  0
   -2.6255    1.1712   31.1150 C   0  0  0  0  0  0  0  0  0  0  0  0
    2.7900   -1.3154   26.4673 N   0  0  0  0  0  0  0  0  0  0  0  0
    4.1571   -0.9142   26.1539 C   0  0  0  0  0  0  0  0  0  0  0  0
    5.0354   -0.5100   26.8658 O   0  0  0  0  0  0  0  0  0  0  0  0
    4.6209   -1.0225   24.6714 C   0  0  0  0  0  0  0  0  0  0  0  0
    4.1183   -1.9396   23.7432 C   0  0  0  0  0  0  0  0  0  0  0  0
    4.5629   -1.9795   22.3973 C   0  0  0  0  0  0  0  0  0  0  0  0
    5.5490   -1.0723   21.9872 C   0  0  0  0  0  0  0  0  0  0  0  0
    6.0799   -0.8260   20.7407 N   0  0  0  0  0  0  0  0  0  0  0  0
    7.0596    0.1307   20.8159 C   0  0  0  0  0  0  0  0  0  0  0  0
    7.1419    0.5284   22.1341 C   0  0  0  0  0  0  0  0  0  0  0  0
    6.1563   -0.1944   22.8783 C   0  0  0  0  0  0  0  0  0  0  0  0
    5.6902   -0.1849   24.2258 C   0  0  0  0  0  0  0  0  0  0  0  0
    0.3433   -2.6700   27.5576 H   0  0  0  0  0  0  0  0  0  0  0  0
    1.9099   -3.4395   27.8614 H   0  0  0  0  0  0  0  0  0  0  0  0
    1.0574   -2.6239   29.1754 H   0  0  0  0  0  0  0  0  0  0  0  0
    2.7797   -1.1065   28.5294 H   0  0  0  0  0  0  0  0  0  0  0  0
    1.5790    0.8860   27.9518 H   0  0  0  0  0  0  0  0  0  0  0  0
    0.4488    0.0235   26.9158 H   0  0  0  0  0  0  0  0  0  0  0  0
   -0.5004   -0.9948   29.0346 H   0  0  0  0  0  0  0  0  0  0  0  0
   -0.5907   -1.5566   31.1990 H   0  0  0  0  0  0  0  0  0  0  0  0
   -2.3655   -2.2258   32.8116 H   0  0  0  0  0  0  0  0  0  0  0  0
   -4.4045    1.3181   32.3302 H   0  0  0  0  0  0  0  0  0  0  0  0
   -2.7242    2.1638   30.6863 H   0  0  0  0  0  0  0  0  0  0  0  0
    2.3494   -1.6859   25.6242 H   0  0  0  0  0  0  0  0  0  0  0  0
    3.3611   -2.6594   24.0404 H   0  0  0  0  0  0  0  0  0  0  0  0
    4.1166   -2.6830   21.6998 H   0  0  0  0  0  0  0  0  0  0  0  0
    5.8021   -1.3302   19.9081 H   0  0  0  0  0  0  0  0  0  0  0  0
    7.5918    0.4629   19.9356 H   0  0  0  0  0  0  0  0  0  0  0  0
    7.8023    1.2917   22.5262 H   0  0  0  0  0  0  0  0  0  0  0  0
    6.1433    0.5118   24.9296 H   0  0  0  0  0  0  0  0  0  0  0  0
  1  2  1  0
  2  3  1  0
  3  4  1  0
  4  5  1  0
  5  6  2  0
  5  7  1  0
  7  8  2  0
  8  9  1  0
  9 10  2  0
 10 11  1  0
 11 12  2  0
  2 13  1  0
 13 14  1  0
 14 15  2  0
 14 16  1  0
 16 17  2  0
 17 18  1  0
 18 19  2  0
 19 20  1  0
 20 21  1  0
 21 22  2  0
 22 23  1  0
 23 24  2  0
 12  7  1  0
 24 16  1  0
 23 19  1  0
  1 25  1  0
  1 26  1  0
  1 27  1  0
  2 28  1  0
  3 29  1  0
  3 30  1  0
  4 31  1  0
  8 32  1  0
  9 33  1  0
 11 34  1  0
 12 35  1  0
 13 36  1  0
 17 37  1  0
 18 38  1  0
 20 39  1  0
 21 40  1  0
 22 41  1  0
 24 42  1  0
M  END
>  <Energy>  (1249) 
43.482158642154559

>  <compound_id>  (1249) 
48223

>  <target_id>  (1249) 
1

>  <reference_id>  (1249) 
97

>  <inspiration_ids>  (1249) 
[97, 7]

>  <energy_score>  (1249) 
-3.716576403244801

>  <distance_score>  (1249) 
12.645815064007259

>  <path>  (1249) 
/opt/xchem-fragalysis-2/maxwin/BulkDock/SCRATCH/511024/C48223-P97/C48223-P97.minimised.mol

>  <scratch_subdir>  (1249) 
/opt/xchem-fragalysis-2/maxwin/BulkDock/SCRATCH/511024/C48223-P97

>  <fragmenstein_runtime>  (1249) 
14.440104007720947

>  <fragmenstein_outcome>  (1249) 
too moved

>  <fragmenstein_mode>  (1249) 
expansion

>  <fragmenstein_error>  (1249) 


$$$$
C48223-P7
     RDKit          3D

 42 44  0  0  0  0  0  0  0  0999 V2000
    0.6848    0.4627   27.3866 C   0  0  0  0  0  0  0  0  0  0  0  0
    1.9419   -0.3901   27.6587 C   0  0  0  0  0  0  0  0  0  0  0  0
    1.5395   -1.6879   28.4171 C   0  0  0  0  0  0  0  0  0  0  0  0
    0.6621   -1.4775   29.5801 N   0  0  0  0  0  0  0  0  0  0  0  0
   -0.7634   -1.3076   29.6673 C   0  0  0  0  0  0  0  0  0  0  0  0
   -1.5928   -1.2154   28.8099 O   0  0  0  0  0  0  0  0  0  0  0  0
   -1.3190   -1.2142   31.0634 C   0  0  0  0  0  0  0  0  0  0  0  0
   -0.9159   -2.0731   32.0814 C   0  0  0  0  0  0  0  0  0  0  0  0
   -1.5974   -2.0028   33.2914 C   0  0  0  0  0  0  0  0  0  0  0  0
   -2.6280   -1.1585   33.5463 N   0  0  0  0  0  0  0  0  0  0  0  0
   -3.0005   -0.3370   32.5478 C   0  0  0  0  0  0  0  0  0  0  0  0
   -2.3818   -0.3276   31.3086 C   0  0  0  0  0  0  0  0  0  0  0  0
    2.7851   -0.6229   26.4407 N   0  0  0  0  0  0  0  0  0  0  0  0
    4.1443   -0.2020   26.1258 C   0  0  0  0  0  0  0  0  0  0  0  0
    4.9599    0.3706   26.7954 O   0  0  0  0  0  0  0  0  0  0  0  0
    4.6777   -0.4982   24.6930 C   0  0  0  0  0  0  0  0  0  0  0  0
    4.2346   -1.5385   23.8701 C   0  0  0  0  0  0  0  0  0  0  0  0
    4.7456   -1.7408   22.5632 C   0  0  0  0  0  0  0  0  0  0  0  0
    5.7330   -0.8696   22.0841 C   0  0  0  0  0  0  0  0  0  0  0  0
    6.3311   -0.7860   20.8482 N   0  0  0  0  0  0  0  0  0  0  0  0
    7.2715    0.2115   20.8329 C   0  0  0  0  0  0  0  0  0  0  0  0
    7.2698    0.7935   22.0825 C   0  0  0  0  0  0  0  0  0  0  0  0
    6.2711    0.1404   22.8728 C   0  0  0  0  0  0  0  0  0  0  0  0
    5.7410    0.3116   24.1840 C   0  0  0  0  0  0  0  0  0  0  0  0
    0.2867    0.8898   28.3121 H   0  0  0  0  0  0  0  0  0  0  0  0
   -0.1048   -0.1103   26.9005 H   0  0  0  0  0  0  0  0  0  0  0  0
    0.9370    1.3012   26.7280 H   0  0  0  0  0  0  0  0  0  0  0  0
    2.5792    0.1986   28.3311 H   0  0  0  0  0  0  0  0  0  0  0  0
    1.0060   -2.3585   27.7365 H   0  0  0  0  0  0  0  0  0  0  0  0
    2.4342   -2.2099   28.7717 H   0  0  0  0  0  0  0  0  0  0  0  0
    1.0578   -1.4324   30.5113 H   0  0  0  0  0  0  0  0  0  0  0  0
   -0.1376   -2.8125   31.9397 H   0  0  0  0  0  0  0  0  0  0  0  0
   -1.3419   -2.6660   34.1153 H   0  0  0  0  0  0  0  0  0  0  0  0
   -3.8318    0.3264   32.7674 H   0  0  0  0  0  0  0  0  0  0  0  0
   -2.7322    0.3411   30.5279 H   0  0  0  0  0  0  0  0  0  0  0  0
    2.4131   -1.1577   25.6590 H   0  0  0  0  0  0  0  0  0  0  0  0
    3.4770   -2.2332   24.2215 H   0  0  0  0  0  0  0  0  0  0  0  0
    4.3509   -2.5429   21.9451 H   0  0  0  0  0  0  0  0  0  0  0  0
    6.1224   -1.4213   20.0859 H   0  0  0  0  0  0  0  0  0  0  0  0
    7.8312    0.4370   19.9380 H   0  0  0  0  0  0  0  0  0  0  0  0
    7.8810    1.6306   22.3958 H   0  0  0  0  0  0  0  0  0  0  0  0
    6.1410    1.1105   24.8063 H   0  0  0  0  0  0  0  0  0  0  0  0
  1  2  1  0
  2  3  1  0
  3  4  1  0
  4  5  1  0
  5  6  2  0
  5  7  1  0
  7  8  2  0
  8  9  1  0
  9 10  2  0
 10 11  1  0
 11 12  2  0
  2 13  1  0
 13 14  1  0
 14 15  2  0
 14 16  1  0
 16 17  2  0
 17 18  1  0
 18 19  2  0
 19 20  1  0
 20 21  1  0
 21 22  2  0
 22 23  1  0
 23 24  2  0
 12  7  1  0
 24 16  1  0
 23 19  1  0
  1 25  1  0
  1 26  1  0
  1 27  1  0
  2 28  1  0
  3 29  1  0
  3 30  1  0
  4 31  1  0
  8 32  1  0
  9 33  1  0
 11 34  1  0
 12 35  1  0
 13 36  1  0
 17 37  1  0
 18 38  1  0
 20 39  1  0
 21 40  1  0
 22 41  1  0
 24 42  1  0
M  END
>  <Energy>  (1250) 
40.622924199673143

>  <compound_id>  (1250) 
48223

>  <target_id>  (1250) 
1

>  <reference_id>  (1250) 
7

>  <inspiration_ids>  (1250) 
[97, 7]

>  <energy_score>  (1250) 
-6.575810845727688

>  <distance_score>  (1250) 
12.685256415614559

>  <path>  (1250) 
/opt/xchem-fragalysis-2/maxwin/BulkDock/SCRATCH/511024/C48223-P7/C48223-P7.minimised.mol

>  <scratch_subdir>  (1250) 
/opt/xchem-fragalysis-2/maxwin/BulkDock/SCRATCH/511024/C48223-P7

>  <fragmenstein_runtime>  (1250) 
12.199503660202026

>  <fragmenstein_outcome>  (1250) 
too moved

>  <fragmenstein_mode>  (1250) 
expansion

>  <fragmenstein_error>  (1250) 


$$$$
C47085-P97
     RDKit          3D

 39 41  0  0  0  0  0  0  0  0999 V2000
    0.4768    0.0035   27.6139 C   0  0  0  0  0  0  0  0  0  0  0  0
    1.3296   -1.2804   27.6537 C   0  0  0  0  0  0  0  0  0  0  0  0
    1.6934   -1.6011   29.1332 C   0  0  0  0  0  0  0  0  0  0  0  0
    0.5560   -1.4263   30.0568 N   0  0  0  0  0  0  0  0  0  0  0  0
   -0.5544   -2.2965   30.3681 C   0  0  0  0  0  0  0  0  0  0  0  0
   -0.7908   -3.4142   30.0142 O   0  0  0  0  0  0  0  0  0  0  0  0
   -1.5592   -1.6445   31.2453 C   0  0  0  0  0  0  0  0  0  0  0  0
   -1.7025   -0.4069   31.8521 C   0  0  0  0  0  0  0  0  0  0  0  0
   -2.8708   -0.3305   32.5748 N   0  0  0  0  0  0  0  0  0  0  0  0
   -3.4039   -1.5141   32.4033 C   0  0  0  0  0  0  0  0  0  0  0  0
   -2.6978   -2.3591   31.6076 O   0  0  0  0  0  0  0  0  0  0  0  0
    2.4573   -1.2815   26.6621 N   0  0  0  0  0  0  0  0  0  0  0  0
    3.7868   -0.7235   26.7372 C   0  0  0  0  0  0  0  0  0  0  0  0
    4.3576   -0.1837   27.6441 O   0  0  0  0  0  0  0  0  0  0  0  0
    4.6801   -0.8496   25.4511 C   0  0  0  0  0  0  0  0  0  0  0  0
    6.0805   -0.8855   25.6434 C   0  0  0  0  0  0  0  0  0  0  0  0
    7.0252   -0.7913   24.5959 C   0  0  0  0  0  0  0  0  0  0  0  0
    6.5386   -0.6282   23.2999 C   0  0  0  0  0  0  0  0  0  0  0  0
    7.2085   -0.3712   22.1221 N   0  0  0  0  0  0  0  0  0  0  0  0
    6.3239   -0.2829   21.0838 C   0  0  0  0  0  0  0  0  0  0  0  0
    5.0608   -0.4749   21.6057 C   0  0  0  0  0  0  0  0  0  0  0  0
    5.1719   -0.6487   23.0228 C   0  0  0  0  0  0  0  0  0  0  0  0
    4.2368   -0.7772   24.1109 C   0  0  0  0  0  0  0  0  0  0  0  0
   -0.4980   -0.1344   28.0914 H   0  0  0  0  0  0  0  0  0  0  0  0
    0.2966    0.3250   26.5849 H   0  0  0  0  0  0  0  0  0  0  0  0
    0.9992    0.8272   28.1131 H   0  0  0  0  0  0  0  0  0  0  0  0
    0.6797   -2.0964   27.3245 H   0  0  0  0  0  0  0  0  0  0  0  0
    2.0361   -2.6382   29.2107 H   0  0  0  0  0  0  0  0  0  0  0  0
    2.4911   -0.9423   29.4892 H   0  0  0  0  0  0  0  0  0  0  0  0
    0.3881   -0.5186   30.4657 H   0  0  0  0  0  0  0  0  0  0  0  0
   -1.0316    0.4397   31.8133 H   0  0  0  0  0  0  0  0  0  0  0  0
   -4.3314   -1.8898   32.8115 H   0  0  0  0  0  0  0  0  0  0  0  0
    2.3376   -1.7371   25.7543 H   0  0  0  0  0  0  0  0  0  0  0  0
    6.4644   -0.9339   26.6640 H   0  0  0  0  0  0  0  0  0  0  0  0
    8.0873   -0.7701   24.8192 H   0  0  0  0  0  0  0  0  0  0  0  0
    8.2066   -0.2202   22.0647 H   0  0  0  0  0  0  0  0  0  0  0  0
    6.6482   -0.0725   20.0748 H   0  0  0  0  0  0  0  0  0  0  0  0
    4.1369   -0.4461   21.0418 H   0  0  0  0  0  0  0  0  0  0  0  0
    3.1736   -0.7336   23.8893 H   0  0  0  0  0  0  0  0  0  0  0  0
  1  2  1  0
  2  3  1  0
  3  4  1  0
  4  5  1  0
  5  6  2  0
  5  7  1  0
  7  8  2  0
  8  9  1  0
  9 10  2  0
 10 11  1  0
  2 12  1  0
 12 13  1  0
 13 14  2  0
 13 15  1  0
 15 16  2  0
 16 17  1  0
 17 18  2  0
 18 19  1  0
 19 20  1  0
 20 21  2  0
 21 22  1  0
 22 23  2  0
 11  7  1  0
 23 15  1  0
 22 18  1  0
  1 24  1  0
  1 25  1  0
  1 26  1  0
  2 27  1  0
  3 28  1  0
  3 29  1  0
  4 30  1  0
  8 31  1  0
 10 32  1  0
 12 33  1  0
 16 34  1  0
 17 35  1  0
 19 36  1  0
 20 37  1  0
 21 38  1  0
 23 39  1  0
M  END
>  <Energy>  (1251) 
44.032127867936133

>  <compound_id>  (1251) 
47085

>  <target_id>  (1251) 
1

>  <reference_id>  (1251) 
97

>  <inspiration_ids>  (1251) 
[97, 7]

>  <energy_score>  (1251) 
-1.9245700674123611

>  <distance_score>  (1251) 
13.255551946259251

>  <path>  (1251) 
/opt/xchem-fragalysis-2/maxwin/BulkDock/SCRATCH/511024/C47085-P97/C47085-P97.minimised.mol

>  <scratch_subdir>  (1251) 
/opt/xchem-fragalysis-2/maxwin/BulkDock/SCRATCH/511024/C47085-P97

>  <fragmenstein_runtime>  (1251) 
12.226223468780518

>  <fragmenstein_outcome>  (1251) 
too moved

>  <fragmenstein_mode>  (1251) 
expansion

>  <fragmenstein_error>  (1251) 


$$$$
C47085-P7
     RDKit          3D

 39 41  0  0  0  0  0  0  0  0999 V2000
    6.8610   -1.6613   21.6525 C   0  0  0  0  0  0  0  0  0  0  0  0
    7.9338   -2.7570   22.0562 C   0  0  0  0  0  0  0  0  0  0  0  0
    8.2658   -2.3385   23.5917 C   0  0  0  0  0  0  0  0  0  0  0  0
    7.0984   -2.4237   24.5265 N   0  0  0  0  0  0  0  0  0  0  0  0
    6.2357   -1.3842   25.0739 C   0  0  0  0  0  0  0  0  0  0  0  0
    6.2940   -0.1930   24.9745 O   0  0  0  0  0  0  0  0  0  0  0  0
    5.1224   -1.9090   25.9172 C   0  0  0  0  0  0  0  0  0  0  0  0
    4.8704   -3.0597   26.6481 C   0  0  0  0  0  0  0  0  0  0  0  0
    3.6589   -3.0021   27.3060 N   0  0  0  0  0  0  0  0  0  0  0  0
    3.1899   -1.8315   26.9412 C   0  0  0  0  0  0  0  0  0  0  0  0
    4.0146   -1.0934   26.1531 O   0  0  0  0  0  0  0  0  0  0  0  0
    9.3891   -3.1656   20.8948 N   0  0  0  0  0  0  0  0  0  0  0  0
   11.2369   -3.5445   21.2779 C   0  0  0  0  0  0  0  0  0  0  0  0
   11.6672   -3.6465   22.4237 O   0  0  0  0  0  0  0  0  0  0  0  0
   12.5723   -3.6426   20.1414 C   0  0  0  0  0  0  0  0  0  0  0  0
   12.7169   -4.1756   18.8435 C   0  0  0  0  0  0  0  0  0  0  0  0
   13.7156   -3.8468   17.9100 C   0  0  0  0  0  0  0  0  0  0  0  0
   14.6489   -2.9147   18.3188 C   0  0  0  0  0  0  0  0  0  0  0  0
   15.6589   -2.3041   17.6141 N   0  0  0  0  0  0  0  0  0  0  0  0
   16.3249   -1.4289   18.4274 C   0  0  0  0  0  0  0  0  0  0  0  0
   15.7579   -1.5053   19.6810 C   0  0  0  0  0  0  0  0  0  0  0  0
   14.6798   -2.4322   19.6229 C   0  0  0  0  0  0  0  0  0  0  0  0
   13.6897   -2.8692   20.5480 C   0  0  0  0  0  0  0  0  0  0  0  0
    5.9945   -2.1144   21.1604 H   0  0  0  0  0  0  0  0  0  0  0  0
    7.3107   -0.9022   21.0035 H   0  0  0  0  0  0  0  0  0  0  0  0
    6.4370   -1.1182   22.4965 H   0  0  0  0  0  0  0  0  0  0  0  0
    7.3810   -3.7101   22.0618 H   0  0  0  0  0  0  0  0  0  0  0  0
    9.0582   -2.9098   24.0688 H   0  0  0  0  0  0  0  0  0  0  0  0
    8.6016   -1.2941   23.5962 H   0  0  0  0  0  0  0  0  0  0  0  0
    6.7029   -3.3296   24.7433 H   0  0  0  0  0  0  0  0  0  0  0  0
    5.5139   -3.9211   26.7523 H   0  0  0  0  0  0  0  0  0  0  0  0
    2.2379   -1.3856   27.1931 H   0  0  0  0  0  0  0  0  0  0  0  0
    9.2519   -3.2127   19.9918 H   0  0  0  0  0  0  0  0  0  0  0  0
   11.9325   -4.7754   18.4332 H   0  0  0  0  0  0  0  0  0  0  0  0
   13.6885   -4.2333   16.8970 H   0  0  0  0  0  0  0  0  0  0  0  0
   15.8715   -2.4751   16.6403 H   0  0  0  0  0  0  0  0  0  0  0  0
   17.1524   -0.8409   18.0535 H   0  0  0  0  0  0  0  0  0  0  0  0
   16.0666   -0.9347   20.5476 H   0  0  0  0  0  0  0  0  0  0  0  0
   13.7244   -2.4617   21.5568 H   0  0  0  0  0  0  0  0  0  0  0  0
  1  2  1  0
  2  3  1  0
  3  4  1  0
  4  5  1  0
  5  6  2  0
  5  7  1  0
  7  8  2  0
  8  9  1  0
  9 10  2  0
 10 11  1  0
  2 12  1  0
 12 13  1  0
 13 14  2  0
 13 15  1  0
 15 16  2  0
 16 17  1  0
 17 18  2  0
 18 19  1  0
 19 20  1  0
 20 21  2  0
 21 22  1  0
 22 23  2  0
 11  7  1  0
 23 15  1  0
 22 18  1  0
  1 24  1  0
  1 25  1  0
  1 26  1  0
  2 27  1  0
  3 28  1  0
  3 29  1  0
  4 30  1  0
  8 31  1  0
 10 32  1  0
 12 33  1  0
 16 34  1  0
 17 35  1  0
 19 36  1  0
 20 37  1  0
 21 38  1  0
 23 39  1  0
M  END
>  <Energy>  (1252) 
229.57251504723774

>  <compound_id>  (1252) 
47085

>  <target_id>  (1252) 
1

>  <reference_id>  (1252) 
7

>  <inspiration_ids>  (1252) 
[97, 7]

>  <energy_score>  (1252) 
183.6158171118887

>  <distance_score>  (1252) 
16.33952836376691

>  <path>  (1252) 
/opt/xchem-fragalysis-2/maxwin/BulkDock/SCRATCH/511024/C47085-P7/C47085-P7.minimised.mol

>  <scratch_subdir>  (1252) 
/opt/xchem-fragalysis-2/maxwin/BulkDock/SCRATCH/511024/C47085-P7

>  <fragmenstein_runtime>  (1252) 
9.962719202041626

>  <fragmenstein_outcome>  (1252) 
too moved

>  <fragmenstein_mode>  (1252) 
expansion

>  <fragmenstein_error>  (1252) 


$$$$
C8333-P97
     RDKit          3D

 42 44  0  0  0  0  0  0  0  0999 V2000
    3.6424   -1.4768   25.7554 C   0  0  0  0  0  0  0  0  0  0  0  0
    3.2055   -0.2003   25.0464 C   0  0  0  0  0  0  0  0  0  0  0  0
    2.7162    0.8601   26.0848 C   0  0  0  0  0  0  0  0  0  0  0  0
    1.5230    0.4923   26.9046 N   0  0  0  0  0  0  0  0  0  0  0  0
    0.8309    1.2185   27.9637 C   0  0  0  0  0  0  0  0  0  0  0  0
    1.0947    2.2611   28.4968 O   0  0  0  0  0  0  0  0  0  0  0  0
   -0.4745    0.5564   28.5389 C   0  0  0  0  0  0  0  0  0  0  0  0
   -0.7421   -0.8079   28.5260 C   0  0  0  0  0  0  0  0  0  0  0  0
   -1.9186   -1.2889   29.1367 C   0  0  0  0  0  0  0  0  0  0  0  0
   -2.8013   -0.4148   29.7623 C   0  0  0  0  0  0  0  0  0  0  0  0
   -2.4719    0.9234   29.7476 C   0  0  0  0  0  0  0  0  0  0  0  0
   -1.3509    1.4161   29.1577 N   0  0  0  0  0  0  0  0  0  0  0  0
    4.2201    0.2155   24.0372 N   0  0  0  0  0  0  0  0  0  0  0  0
    5.6633    0.2171   24.0896 C   0  0  0  0  0  0  0  0  0  0  0  0
    6.4131   -0.0410   24.9883 O   0  0  0  0  0  0  0  0  0  0  0  0
    6.3790    0.5075   22.7571 C   0  0  0  0  0  0  0  0  0  0  0  0
    7.6670    1.0717   22.8239 C   0  0  0  0  0  0  0  0  0  0  0  0
    8.4157    1.4144   21.6830 C   0  0  0  0  0  0  0  0  0  0  0  0
    7.8376    1.1734   20.4377 C   0  0  0  0  0  0  0  0  0  0  0  0
    8.2640    1.5253   19.1768 N   0  0  0  0  0  0  0  0  0  0  0  0
    7.4130    1.0228   18.2328 C   0  0  0  0  0  0  0  0  0  0  0  0
    6.3676    0.4227   18.9018 C   0  0  0  0  0  0  0  0  0  0  0  0
    6.6061    0.5367   20.3041 C   0  0  0  0  0  0  0  0  0  0  0  0
    5.8790    0.1814   21.4789 C   0  0  0  0  0  0  0  0  0  0  0  0
    2.8563   -1.8698   26.4074 H   0  0  0  0  0  0  0  0  0  0  0  0
    4.5272   -1.3026   26.3755 H   0  0  0  0  0  0  0  0  0  0  0  0
    3.8829   -2.2506   25.0197 H   0  0  0  0  0  0  0  0  0  0  0  0
    2.3461   -0.4388   24.4201 H   0  0  0  0  0  0  0  0  0  0  0  0
    3.5193    1.1182   26.7842 H   0  0  0  0  0  0  0  0  0  0  0  0
    2.4491    1.7860   25.5627 H   0  0  0  0  0  0  0  0  0  0  0  0
    0.9715   -0.3145   26.6420 H   0  0  0  0  0  0  0  0  0  0  0  0
   -0.0529   -1.5146   28.0772 H   0  0  0  0  0  0  0  0  0  0  0  0
   -2.1306   -2.3551   29.1096 H   0  0  0  0  0  0  0  0  0  0  0  0
   -3.7105   -0.7642   30.2350 H   0  0  0  0  0  0  0  0  0  0  0  0
   -3.1088    1.6692   30.2143 H   0  0  0  0  0  0  0  0  0  0  0  0
    3.9244    0.4059   23.0902 H   0  0  0  0  0  0  0  0  0  0  0  0
    8.0978    1.2878   23.8033 H   0  0  0  0  0  0  0  0  0  0  0  0
    9.3827    1.8973   21.7876 H   0  0  0  0  0  0  0  0  0  0  0  0
    9.0751    2.1001   18.9901 H   0  0  0  0  0  0  0  0  0  0  0  0
    7.5980    1.1756   17.1780 H   0  0  0  0  0  0  0  0  0  0  0  0
    5.4989   -0.0285   18.4377 H   0  0  0  0  0  0  0  0  0  0  0  0
    4.9282   -0.3312   21.3681 H   0  0  0  0  0  0  0  0  0  0  0  0
  1  2  1  0
  2  3  1  0
  3  4  1  0
  4  5  1  0
  5  6  2  0
  5  7  1  0
  7  8  2  0
  8  9  1  0
  9 10  2  0
 10 11  1  0
 11 12  2  0
  2 13  1  0
 13 14  1  0
 14 15  2  0
 14 16  1  0
 16 17  2  0
 17 18  1  0
 18 19  2  0
 19 20  1  0
 20 21  1  0
 21 22  2  0
 22 23  1  0
 23 24  2  0
 12  7  1  0
 24 16  1  0
 23 19  1  0
  1 25  1  0
  1 26  1  0
  1 27  1  0
  2 28  1  0
  3 29  1  0
  3 30  1  0
  4 31  1  0
  8 32  1  0
  9 33  1  0
 10 34  1  0
 11 35  1  0
 13 36  1  0
 17 37  1  0
 18 38  1  0
 20 39  1  0
 21 40  1  0
 22 41  1  0
 24 42  1  0
M  END
>  <Energy>  (1253) 
100.83559336832559

>  <compound_id>  (1253) 
8333

>  <target_id>  (1253) 
1

>  <reference_id>  (1253) 
97

>  <inspiration_ids>  (1253) 
[97, 7]

>  <energy_score>  (1253) 
20.882227991913282

>  <distance_score>  (1253) 
12.515748158843945

>  <path>  (1253) 
/opt/xchem-fragalysis-2/maxwin/BulkDock/SCRATCH/511024/C8333-P97/C8333-P97.minimised.mol

>  <scratch_subdir>  (1253) 
/opt/xchem-fragalysis-2/maxwin/BulkDock/SCRATCH/511024/C8333-P97

>  <fragmenstein_runtime>  (1253) 
18.058735847473145

>  <fragmenstein_outcome>  (1253) 
too moved

>  <fragmenstein_mode>  (1253) 
expansion

>  <fragmenstein_error>  (1253) 


$$$$
C8333-P7
     RDKit          3D

 42 44  0  0  0  0  0  0  0  0999 V2000
    3.9559   -0.0799   26.9727 C   0  0  0  0  0  0  0  0  0  0  0  0
    3.0391    0.1267   25.7683 C   0  0  0  0  0  0  0  0  0  0  0  0
    1.8931    1.1382   26.1073 C   0  0  0  0  0  0  0  0  0  0  0  0
    0.8250    0.7244   27.0531 N   0  0  0  0  0  0  0  0  0  0  0  0
   -0.6028    0.9710   27.0392 C   0  0  0  0  0  0  0  0  0  0  0  0
   -1.2962    1.5051   26.2175 O   0  0  0  0  0  0  0  0  0  0  0  0
   -1.3743    0.5207   28.3081 C   0  0  0  0  0  0  0  0  0  0  0  0
   -2.7742    0.6599   28.3549 C   0  0  0  0  0  0  0  0  0  0  0  0
   -3.4831    0.3271   29.5169 C   0  0  0  0  0  0  0  0  0  0  0  0
   -2.7833   -0.1448   30.6147 C   0  0  0  0  0  0  0  0  0  0  0  0
   -1.4038   -0.2634   30.4925 C   0  0  0  0  0  0  0  0  0  0  0  0
   -0.6767    0.0585   29.3791 N   0  0  0  0  0  0  0  0  0  0  0  0
    3.8751    0.4807   24.5788 N   0  0  0  0  0  0  0  0  0  0  0  0
    4.4334   -0.3494   23.5314 C   0  0  0  0  0  0  0  0  0  0  0  0
    4.3018   -1.5172   23.3083 O   0  0  0  0  0  0  0  0  0  0  0  0
    5.3855    0.3139   22.5478 C   0  0  0  0  0  0  0  0  0  0  0  0
    6.4216    1.1583   22.9513 C   0  0  0  0  0  0  0  0  0  0  0  0
    7.3340    1.7077   22.0227 C   0  0  0  0  0  0  0  0  0  0  0  0
    7.1780    1.3944   20.6654 C   0  0  0  0  0  0  0  0  0  0  0  0
    7.8331    1.8697   19.5501 N   0  0  0  0  0  0  0  0  0  0  0  0
    7.3602    1.2560   18.4190 C   0  0  0  0  0  0  0  0  0  0  0  0
    6.3375    0.4196   18.8061 C   0  0  0  0  0  0  0  0  0  0  0  0
    6.2025    0.5066   20.2227 C   0  0  0  0  0  0  0  0  0  0  0  0
    5.3208   -0.0574   21.1799 C   0  0  0  0  0  0  0  0  0  0  0  0
    4.4700    0.8500   27.2394 H   0  0  0  0  0  0  0  0  0  0  0  0
    4.7245   -0.8289   26.7518 H   0  0  0  0  0  0  0  0  0  0  0  0
    3.3926   -0.4245   27.8455 H   0  0  0  0  0  0  0  0  0  0  0  0
    2.5969   -0.8426   25.5338 H   0  0  0  0  0  0  0  0  0  0  0  0
    1.3860    1.4261   25.1790 H   0  0  0  0  0  0  0  0  0  0  0  0
    2.3244    2.0584   26.5184 H   0  0  0  0  0  0  0  0  0  0  0  0
    1.0828    0.3201   27.9518 H   0  0  0  0  0  0  0  0  0  0  0  0
   -3.3085    1.0394   27.4878 H   0  0  0  0  0  0  0  0  0  0  0  0
   -4.5625    0.4425   29.5509 H   0  0  0  0  0  0  0  0  0  0  0  0
   -3.2868   -0.4141   31.5357 H   0  0  0  0  0  0  0  0  0  0  0  0
   -0.8089   -0.6344   31.3246 H   0  0  0  0  0  0  0  0  0  0  0  0
    4.2678    1.4095   24.5083 H   0  0  0  0  0  0  0  0  0  0  0  0
    6.5473    1.3924   24.0063 H   0  0  0  0  0  0  0  0  0  0  0  0
    8.1107    2.3879   22.3607 H   0  0  0  0  0  0  0  0  0  0  0  0
    8.5463    2.5865   19.5714 H   0  0  0  0  0  0  0  0  0  0  0  0
    7.7572    1.5025   17.4432 H   0  0  0  0  0  0  0  0  0  0  0  0
    5.7140   -0.1724   18.1475 H   0  0  0  0  0  0  0  0  0  0  0  0
    4.5580   -0.7659   20.8582 H   0  0  0  0  0  0  0  0  0  0  0  0
  1  2  1  0
  2  3  1  0
  3  4  1  0
  4  5  1  0
  5  6  2  0
  5  7  1  0
  7  8  2  0
  8  9  1  0
  9 10  2  0
 10 11  1  0
 11 12  2  0
  2 13  1  0
 13 14  1  0
 14 15  2  0
 14 16  1  0
 16 17  2  0
 17 18  1  0
 18 19  2  0
 19 20  1  0
 20 21  1  0
 21 22  2  0
 22 23  1  0
 23 24  2  0
 12  7  1  0
 24 16  1  0
 23 19  1  0
  1 25  1  0
  1 26  1  0
  1 27  1  0
  2 28  1  0
  3 29  1  0
  3 30  1  0
  4 31  1  0
  8 32  1  0
  9 33  1  0
 10 34  1  0
 11 35  1  0
 13 36  1  0
 17 37  1  0
 18 38  1  0
 20 39  1  0
 21 40  1  0
 22 41  1  0
 24 42  1  0
M  END
>  <Energy>  (1254) 
82.814123019450221

>  <compound_id>  (1254) 
8333

>  <target_id>  (1254) 
1

>  <reference_id>  (1254) 
7

>  <inspiration_ids>  (1254) 
[97, 7]

>  <energy_score>  (1254) 
2.860757643035413

>  <distance_score>  (1254) 
12.354802127233636

>  <path>  (1254) 
/opt/xchem-fragalysis-2/maxwin/BulkDock/SCRATCH/511024/C8333-P7/C8333-P7.minimised.mol

>  <scratch_subdir>  (1254) 
/opt/xchem-fragalysis-2/maxwin/BulkDock/SCRATCH/511024/C8333-P7

>  <fragmenstein_runtime>  (1254) 
15.890572309494019

>  <fragmenstein_outcome>  (1254) 
too moved

>  <fragmenstein_mode>  (1254) 
expansion

>  <fragmenstein_error>  (1254) 


$$$$
C9819-P97
     RDKit          3D

 42 44  0  0  0  0  0  0  0  0999 V2000
    7.4729   -2.5820   23.0526 C   0  0  0  0  0  0  0  0  0  0  0  0
    6.3023   -1.9276   22.3691 C   0  0  0  0  0  0  0  0  0  0  0  0
    4.8810   -1.6501   23.6188 C   0  0  0  0  0  0  0  0  0  0  0  0
    4.0716   -1.5448   24.8868 N   0  0  0  0  0  0  0  0  0  0  0  0
    4.0814   -0.5541   25.9459 C   0  0  0  0  0  0  0  0  0  0  0  0
    4.7949    0.3956   26.1239 O   0  0  0  0  0  0  0  0  0  0  0  0
    2.8981   -0.6959   26.9645 C   0  0  0  0  0  0  0  0  0  0  0  0
    2.3057    0.4386   27.5524 C   0  0  0  0  0  0  0  0  0  0  0  0
    1.2046    0.3323   28.4327 C   0  0  0  0  0  0  0  0  0  0  0  0
    0.7131   -0.9246   28.7408 C   0  0  0  0  0  0  0  0  0  0  0  0
    1.2563   -2.0511   28.2424 N   0  0  0  0  0  0  0  0  0  0  0  0
    2.3184   -1.8962   27.3731 C   0  0  0  0  0  0  0  0  0  0  0  0
    6.7565   -1.0005   20.9351 N   0  0  0  0  0  0  0  0  0  0  0  0
    7.8086    0.0895   20.7373 C   0  0  0  0  0  0  0  0  0  0  0  0
    8.6449    0.5248   21.5020 O   0  0  0  0  0  0  0  0  0  0  0  0
    7.8221    0.8966   19.4335 C   0  0  0  0  0  0  0  0  0  0  0  0
    8.5850    2.0853   19.4411 C   0  0  0  0  0  0  0  0  0  0  0  0
    9.1474    2.6463   18.2820 C   0  0  0  0  0  0  0  0  0  0  0  0
    9.0830    1.8381   17.1519 C   0  0  0  0  0  0  0  0  0  0  0  0
    9.8179    1.8721   15.9878 N   0  0  0  0  0  0  0  0  0  0  0  0
    9.5636    0.7488   15.2532 C   0  0  0  0  0  0  0  0  0  0  0  0
    8.5269    0.0774   15.8627 C   0  0  0  0  0  0  0  0  0  0  0  0
    8.2297    0.7385   17.0904 C   0  0  0  0  0  0  0  0  0  0  0  0
    7.3832    0.4556   18.1975 C   0  0  0  0  0  0  0  0  0  0  0  0
    8.1586   -1.8567   23.4926 H   0  0  0  0  0  0  0  0  0  0  0  0
    7.9292   -3.1748   22.2810 H   0  0  0  0  0  0  0  0  0  0  0  0
    7.2023   -3.2872   23.8382 H   0  0  0  0  0  0  0  0  0  0  0  0
    5.8125   -2.6419   21.7364 H   0  0  0  0  0  0  0  0  0  0  0  0
    5.5123   -2.2571   24.2649 H   0  0  0  0  0  0  0  0  0  0  0  0
    4.0888   -2.1914   23.1570 H   0  0  0  0  0  0  0  0  0  0  0  0
    3.2726   -2.1573   25.0132 H   0  0  0  0  0  0  0  0  0  0  0  0
    2.7000    1.4228   27.3051 H   0  0  0  0  0  0  0  0  0  0  0  0
    0.7573    1.2222   28.8614 H   0  0  0  0  0  0  0  0  0  0  0  0
   -0.1311   -1.0603   29.4084 H   0  0  0  0  0  0  0  0  0  0  0  0
    2.7112   -2.8314   27.0007 H   0  0  0  0  0  0  0  0  0  0  0  0
    6.2800   -1.1665   20.0601 H   0  0  0  0  0  0  0  0  0  0  0  0
    8.8460    2.5479   20.3951 H   0  0  0  0  0  0  0  0  0  0  0  0
    9.7944    3.5152   18.3416 H   0  0  0  0  0  0  0  0  0  0  0  0
   10.5221    2.5642   15.7694 H   0  0  0  0  0  0  0  0  0  0  0  0
   10.0870    0.5472   14.3264 H   0  0  0  0  0  0  0  0  0  0  0  0
    8.0691   -0.8218   15.4669 H   0  0  0  0  0  0  0  0  0  0  0  0
    6.5730   -0.2552   18.1220 H   0  0  0  0  0  0  0  0  0  0  0  0
  1  2  1  0
  2  3  1  0
  3  4  1  0
  4  5  1  0
  5  6  2  0
  5  7  1  0
  7  8  2  0
  8  9  1  0
  9 10  2  0
 10 11  1  0
 11 12  2  0
  2 13  1  0
 13 14  1  0
 14 15  2  0
 14 16  1  0
 16 17  2  0
 17 18  1  0
 18 19  2  0
 19 20  1  0
 20 21  1  0
 21 22  2  0
 22 23  1  0
 23 24  2  0
 12  7  1  0
 24 16  1  0
 23 19  1  0
  1 25  1  0
  1 26  1  0
  1 27  1  0
  2 28  1  0
  3 29  1  0
  3 30  1  0
  4 31  1  0
  8 32  1  0
  9 33  1  0
 10 34  1  0
 12 35  1  0
 13 36  1  0
 17 37  1  0
 18 38  1  0
 20 39  1  0
 21 40  1  0
 22 41  1  0
 24 42  1  0
M  END
>  <Energy>  (1255) 
240.1292495353095

>  <compound_id>  (1255) 
9819

>  <target_id>  (1255) 
1

>  <reference_id>  (1255) 
97

>  <inspiration_ids>  (1255) 
[97, 7]

>  <energy_score>  (1255) 
175.70097190236498

>  <distance_score>  (1255) 
11.833007968082162

>  <path>  (1255) 
/opt/xchem-fragalysis-2/maxwin/BulkDock/SCRATCH/511024/C9819-P97/C9819-P97.minimised.mol

>  <scratch_subdir>  (1255) 
/opt/xchem-fragalysis-2/maxwin/BulkDock/SCRATCH/511024/C9819-P97

>  <fragmenstein_runtime>  (1255) 
10.826771259307861

>  <fragmenstein_outcome>  (1255) 
too moved

>  <fragmenstein_mode>  (1255) 
expansion

>  <fragmenstein_error>  (1255) 


$$$$
C9819-P7
     RDKit          3D

 42 44  0  0  0  0  0  0  0  0999 V2000
    4.1220   -0.2017   28.3323 C   0  0  0  0  0  0  0  0  0  0  0  0
    3.3449   -0.9614   27.2592 C   0  0  0  0  0  0  0  0  0  0  0  0
    2.6158   -2.1914   27.8740 C   0  0  0  0  0  0  0  0  0  0  0  0
    1.4647   -1.9328   28.7724 N   0  0  0  0  0  0  0  0  0  0  0  0
    0.8567   -2.7560   29.7948 C   0  0  0  0  0  0  0  0  0  0  0  0
    1.1791   -3.8264   30.2304 O   0  0  0  0  0  0  0  0  0  0  0  0
   -0.4133   -2.2128   30.4713 C   0  0  0  0  0  0  0  0  0  0  0  0
   -0.9322   -0.9175   30.3945 C   0  0  0  0  0  0  0  0  0  0  0  0
   -2.0948   -0.5710   31.1143 C   0  0  0  0  0  0  0  0  0  0  0  0
   -2.7240   -1.5260   31.9001 C   0  0  0  0  0  0  0  0  0  0  0  0
   -2.2687   -2.7843   32.0154 N   0  0  0  0  0  0  0  0  0  0  0  0
   -1.1358   -3.0829   31.3097 C   0  0  0  0  0  0  0  0  0  0  0  0
    4.1710   -1.2611   26.0623 N   0  0  0  0  0  0  0  0  0  0  0  0
    5.6171   -1.2687   25.8762 C   0  0  0  0  0  0  0  0  0  0  0  0
    6.5090   -1.1118   26.6647 O   0  0  0  0  0  0  0  0  0  0  0  0
    6.0488   -1.3982   24.4228 C   0  0  0  0  0  0  0  0  0  0  0  0
    6.9100   -2.2854   23.8376 C   0  0  0  0  0  0  0  0  0  0  0  0
    7.0834   -2.2346   22.4402 C   0  0  0  0  0  0  0  0  0  0  0  0
    6.8974   -1.0200   21.7423 C   0  0  0  0  0  0  0  0  0  0  0  0
    7.0771   -0.5502   20.4415 N   0  0  0  0  0  0  0  0  0  0  0  0
    7.0041    0.7987   20.3375 C   0  0  0  0  0  0  0  0  0  0  0  0
    6.2943    1.1390   21.4569 C   0  0  0  0  0  0  0  0  0  0  0  0
    6.2413   -0.0099   22.3585 C   0  0  0  0  0  0  0  0  0  0  0  0
    5.6360   -0.3908   23.5921 C   0  0  0  0  0  0  0  0  0  0  0  0
    4.6015    0.6888   27.9116 H   0  0  0  0  0  0  0  0  0  0  0  0
    4.9025   -0.8279   28.7771 H   0  0  0  0  0  0  0  0  0  0  0  0
    3.4571    0.1270   29.1378 H   0  0  0  0  0  0  0  0  0  0  0  0
    2.5711   -0.2828   26.8830 H   0  0  0  0  0  0  0  0  0  0  0  0
    3.3238   -2.8122   28.4327 H   0  0  0  0  0  0  0  0  0  0  0  0
    2.2195   -2.8182   27.0731 H   0  0  0  0  0  0  0  0  0  0  0  0
    0.8767   -1.1311   28.6028 H   0  0  0  0  0  0  0  0  0  0  0  0
   -0.4492   -0.1455   29.8057 H   0  0  0  0  0  0  0  0  0  0  0  0
   -2.5013    0.4345   31.0508 H   0  0  0  0  0  0  0  0  0  0  0  0
   -3.6244   -1.2950   32.4606 H   0  0  0  0  0  0  0  0  0  0  0  0
   -0.7998   -4.1089   31.4517 H   0  0  0  0  0  0  0  0  0  0  0  0
    3.7169   -1.3463   25.1518 H   0  0  0  0  0  0  0  0  0  0  0  0
    7.3263   -3.1069   24.4032 H   0  0  0  0  0  0  0  0  0  0  0  0
    7.5381   -3.0894   21.9668 H   0  0  0  0  0  0  0  0  0  0  0  0
    7.0261   -1.1524   19.6420 H   0  0  0  0  0  0  0  0  0  0  0  0
    7.2108    1.3371   19.4233 H   0  0  0  0  0  0  0  0  0  0  0  0
    5.8150    2.0993   21.5868 H   0  0  0  0  0  0  0  0  0  0  0  0
    4.8530    0.2035   24.0370 H   0  0  0  0  0  0  0  0  0  0  0  0
  1  2  1  0
  2  3  1  0
  3  4  1  0
  4  5  1  0
  5  6  2  0
  5  7  1  0
  7  8  2  0
  8  9  1  0
  9 10  2  0
 10 11  1  0
 11 12  2  0
  2 13  1  0
 13 14  1  0
 14 15  2  0
 14 16  1  0
 16 17  2  0
 17 18  1  0
 18 19  2  0
 19 20  1  0
 20 21  1  0
 21 22  2  0
 22 23  1  0
 23 24  2  0
 12  7  1  0
 24 16  1  0
 23 19  1  0
  1 25  1  0
  1 26  1  0
  1 27  1  0
  2 28  1  0
  3 29  1  0
  3 30  1  0
  4 31  1  0
  8 32  1  0
  9 33  1  0
 10 34  1  0
 12 35  1  0
 13 36  1  0
 17 37  1  0
 18 38  1  0
 20 39  1  0
 21 40  1  0
 22 41  1  0
 24 42  1  0
M  END
>  <Energy>  (1256) 
95.565765399676636

>  <compound_id>  (1256) 
9819

>  <target_id>  (1256) 
1

>  <reference_id>  (1256) 
7

>  <inspiration_ids>  (1256) 
[97, 7]

>  <energy_score>  (1256) 
31.137487766730715

>  <distance_score>  (1256) 
11.138818646339846

>  <path>  (1256) 
/opt/xchem-fragalysis-2/maxwin/BulkDock/SCRATCH/511024/C9819-P7/C9819-P7.minimised.mol

>  <scratch_subdir>  (1256) 
/opt/xchem-fragalysis-2/maxwin/BulkDock/SCRATCH/511024/C9819-P7

>  <fragmenstein_runtime>  (1256) 
18.223317623138428

>  <fragmenstein_outcome>  (1256) 
too moved

>  <fragmenstein_mode>  (1256) 
expansion

>  <fragmenstein_error>  (1256) 


$$$$
C29803-P97
     RDKit          3D

 39 41  0  0  0  0  0  0  0  0999 V2000
    3.2709   -0.8590   26.2054 C   0  0  0  0  0  0  0  0  0  0  0  0
    3.6309    0.5051   25.5722 C   0  0  0  0  0  0  0  0  0  0  0  0
    2.3619    1.2323   25.0776 C   0  0  0  0  0  0  0  0  0  0  0  0
    1.3733    1.4397   26.1184 N   0  0  0  0  0  0  0  0  0  0  0  0
    1.2673    2.4468   27.1191 C   0  0  0  0  0  0  0  0  0  0  0  0
    1.9222    3.4274   27.3119 O   0  0  0  0  0  0  0  0  0  0  0  0
    0.1371    2.1364   28.0333 C   0  0  0  0  0  0  0  0  0  0  0  0
   -0.2394    2.9423   29.0950 C   0  0  0  0  0  0  0  0  0  0  0  0
   -1.5682    2.2542   29.9310 S   0  0  0  0  0  0  0  0  0  0  0  0
   -1.5506    0.9347   28.8393 C   0  0  0  0  0  0  0  0  0  0  0  0
   -0.6407    0.9765   27.8922 N   0  0  0  0  0  0  0  0  0  0  0  0
    4.6680    0.4787   24.5079 N   0  0  0  0  0  0  0  0  0  0  0  0
    4.7495   -0.2822   23.2825 C   0  0  0  0  0  0  0  0  0  0  0  0
    4.0409   -1.1444   22.8509 O   0  0  0  0  0  0  0  0  0  0  0  0
    5.8780    0.1451   22.3318 C   0  0  0  0  0  0  0  0  0  0  0  0
    7.1023    0.6694   22.7622 C   0  0  0  0  0  0  0  0  0  0  0  0
    8.0682    1.1510   21.8521 C   0  0  0  0  0  0  0  0  0  0  0  0
    7.7723    1.1031   20.4851 C   0  0  0  0  0  0  0  0  0  0  0  0
    8.4435    1.6248   19.4020 N   0  0  0  0  0  0  0  0  0  0  0  0
    7.8069    1.2884   18.2365 C   0  0  0  0  0  0  0  0  0  0  0  0
    6.6530    0.6210   18.5800 C   0  0  0  0  0  0  0  0  0  0  0  0
    6.6092    0.5145   20.0012 C   0  0  0  0  0  0  0  0  0  0  0  0
    5.6705    0.0102   20.9362 C   0  0  0  0  0  0  0  0  0  0  0  0
    4.1613   -1.2859   26.6805 H   0  0  0  0  0  0  0  0  0  0  0  0
    2.4917   -0.7778   26.9676 H   0  0  0  0  0  0  0  0  0  0  0  0
    2.9600   -1.5660   25.4368 H   0  0  0  0  0  0  0  0  0  0  0  0
    4.0750    1.1139   26.3704 H   0  0  0  0  0  0  0  0  0  0  0  0
    2.6423    2.2231   24.7011 H   0  0  0  0  0  0  0  0  0  0  0  0
    1.8949    0.6898   24.2527 H   0  0  0  0  0  0  0  0  0  0  0  0
    0.6918    0.7048   26.3142 H   0  0  0  0  0  0  0  0  0  0  0  0
    0.2020    3.8791   29.4066 H   0  0  0  0  0  0  0  0  0  0  0  0
   -2.2524    0.1158   28.9284 H   0  0  0  0  0  0  0  0  0  0  0  0
    5.3916    1.1841   24.5071 H   0  0  0  0  0  0  0  0  0  0  0  0
    7.3348    0.7230   23.8235 H   0  0  0  0  0  0  0  0  0  0  0  0
    8.9927    1.5909   22.2168 H   0  0  0  0  0  0  0  0  0  0  0  0
    9.2795    2.1904   19.4695 H   0  0  0  0  0  0  0  0  0  0  0  0
    8.2009    1.5949   17.2760 H   0  0  0  0  0  0  0  0  0  0  0  0
    5.8962    0.2668   17.8908 H   0  0  0  0  0  0  0  0  0  0  0  0
    4.7415   -0.4280   20.5738 H   0  0  0  0  0  0  0  0  0  0  0  0
  1  2  1  0
  2  3  1  0
  3  4  1  0
  4  5  1  0
  5  6  2  0
  5  7  1  0
  7  8  2  0
  8  9  1  0
  9 10  1  0
 10 11  2  0
  2 12  1  0
 12 13  1  0
 13 14  2  0
 13 15  1  0
 15 16  2  0
 16 17  1  0
 17 18  2  0
 18 19  1  0
 19 20  1  0
 20 21  2  0
 21 22  1  0
 22 23  2  0
 11  7  1  0
 23 15  1  0
 22 18  1  0
  1 24  1  0
  1 25  1  0
  1 26  1  0
  2 27  1  0
  3 28  1  0
  3 29  1  0
  4 30  1  0
  8 31  1  0
 10 32  1  0
 12 33  1  0
 16 34  1  0
 17 35  1  0
 19 36  1  0
 20 37  1  0
 21 38  1  0
 23 39  1  0
M  END
>  <Energy>  (1257) 
40.880248514369015

>  <compound_id>  (1257) 
29803

>  <target_id>  (1257) 
1

>  <reference_id>  (1257) 
97

>  <inspiration_ids>  (1257) 
[97, 7]

>  <energy_score>  (1257) 
-58.64379336429789

>  <distance_score>  (1257) 
13.857399345978171

>  <path>  (1257) 
/opt/xchem-fragalysis-2/maxwin/BulkDock/SCRATCH/511024/C29803-P97/C29803-P97.minimised.mol

>  <scratch_subdir>  (1257) 
/opt/xchem-fragalysis-2/maxwin/BulkDock/SCRATCH/511024/C29803-P97

>  <fragmenstein_runtime>  (1257) 
13.794159412384033

>  <fragmenstein_outcome>  (1257) 
too moved

>  <fragmenstein_mode>  (1257) 
expansion

>  <fragmenstein_error>  (1257) 


$$$$
C29803-P7
     RDKit          3D

 39 41  0  0  0  0  0  0  0  0999 V2000
  -13.3091   -2.8525   28.9499 C   0  0  0  0  0  0  0  0  0  0  0  0
  -11.9438   -3.2780   29.4695 C   0  0  0  0  0  0  0  0  0  0  0  0
  -11.7456   -3.3938   31.2842 C   0  0  0  0  0  0  0  0  0  0  0  0
  -12.2809   -3.0588   32.7671 N   0  0  0  0  0  0  0  0  0  0  0  0
  -11.4922   -2.7533   34.1103 C   0  0  0  0  0  0  0  0  0  0  0  0
  -10.3093   -2.6211   34.3059 O   0  0  0  0  0  0  0  0  0  0  0  0
  -12.2467   -2.4661   35.3562 C   0  0  0  0  0  0  0  0  0  0  0  0
  -12.1220   -3.2927   36.4635 C   0  0  0  0  0  0  0  0  0  0  0  0
  -12.7212   -2.5410   37.8717 S   0  0  0  0  0  0  0  0  0  0  0  0
  -12.9270   -1.1001   36.9729 C   0  0  0  0  0  0  0  0  0  0  0  0
  -12.6402   -1.1620   35.6863 N   0  0  0  0  0  0  0  0  0  0  0  0
  -10.8357   -2.8002   28.3348 N   0  0  0  0  0  0  0  0  0  0  0  0
  -10.5342   -3.3506   26.9482 C   0  0  0  0  0  0  0  0  0  0  0  0
  -10.9775   -4.3166   26.3811 O   0  0  0  0  0  0  0  0  0  0  0  0
   -9.4911   -2.5354   25.9431 C   0  0  0  0  0  0  0  0  0  0  0  0
   -9.0310   -1.2258   26.0684 C   0  0  0  0  0  0  0  0  0  0  0  0
   -8.1449   -0.6005   25.1063 C   0  0  0  0  0  0  0  0  0  0  0  0
   -7.5652   -1.3317   24.0525 C   0  0  0  0  0  0  0  0  0  0  0  0
   -6.5696   -1.0234   23.1382 N   0  0  0  0  0  0  0  0  0  0  0  0
   -6.3342   -2.0974   22.3173 C   0  0  0  0  0  0  0  0  0  0  0  0
   -7.2329   -3.0864   22.6744 C   0  0  0  0  0  0  0  0  0  0  0  0
   -8.0106   -2.6239   23.7972 C   0  0  0  0  0  0  0  0  0  0  0  0
   -9.0136   -3.1808   24.7172 C   0  0  0  0  0  0  0  0  0  0  0  0
  -14.0927   -3.5498   29.2583 H   0  0  0  0  0  0  0  0  0  0  0  0
  -13.3260   -2.8742   27.8532 H   0  0  0  0  0  0  0  0  0  0  0  0
  -13.5535   -1.8247   29.2302 H   0  0  0  0  0  0  0  0  0  0  0  0
  -11.8992   -4.3529   29.2303 H   0  0  0  0  0  0  0  0  0  0  0  0
  -12.2364   -4.3752   31.2766 H   0  0  0  0  0  0  0  0  0  0  0  0
  -10.7195   -3.5185   31.4571 H   0  0  0  0  0  0  0  0  0  0  0  0
  -13.2313   -3.1840   32.9689 H   0  0  0  0  0  0  0  0  0  0  0  0
  -11.6571   -4.2641   36.4882 H   0  0  0  0  0  0  0  0  0  0  0  0
  -13.2823   -0.1922   37.4433 H   0  0  0  0  0  0  0  0  0  0  0  0
  -10.3455   -1.9247   28.4592 H   0  0  0  0  0  0  0  0  0  0  0  0
   -9.3871   -0.6101   26.8911 H   0  0  0  0  0  0  0  0  0  0  0  0
   -7.9040    0.4530   25.2298 H   0  0  0  0  0  0  0  0  0  0  0  0
   -6.0737   -0.1433   23.1055 H   0  0  0  0  0  0  0  0  0  0  0  0
   -5.5733   -2.0615   21.5492 H   0  0  0  0  0  0  0  0  0  0  0  0
   -7.3057   -4.0641   22.2151 H   0  0  0  0  0  0  0  0  0  0  0  0
   -9.3533   -4.1979   24.5155 H   0  0  0  0  0  0  0  0  0  0  0  0
  1  2  1  0
  2  3  1  0
  3  4  1  0
  4  5  1  0
  5  6  2  0
  5  7  1  0
  7  8  2  0
  8  9  1  0
  9 10  1  0
 10 11  2  0
  2 12  1  0
 12 13  1  0
 13 14  2  0
 13 15  1  0
 15 16  2  0
 16 17  1  0
 17 18  2  0
 18 19  1  0
 19 20  1  0
 20 21  2  0
 21 22  1  0
 22 23  2  0
 11  7  1  0
 23 15  1  0
 22 18  1  0
  1 24  1  0
  1 25  1  0
  1 26  1  0
  2 27  1  0
  3 28  1  0
  3 29  1  0
  4 30  1  0
  8 31  1  0
 10 32  1  0
 12 33  1  0
 16 34  1  0
 17 35  1  0
 19 36  1  0
 20 37  1  0
 21 38  1  0
 23 39  1  0
M  END
>  <Energy>  (1258) 
196.8573221459026

>  <compound_id>  (1258) 
29803

>  <target_id>  (1258) 
1

>  <reference_id>  (1258) 
7

>  <inspiration_ids>  (1258) 
[97, 7]

>  <energy_score>  (1258) 
97.33328026723615

>  <distance_score>  (1258) 
18.085350866779724

>  <path>  (1258) 
/opt/xchem-fragalysis-2/maxwin/BulkDock/SCRATCH/511024/C29803-P7/C29803-P7.minimised.mol

>  <scratch_subdir>  (1258) 
/opt/xchem-fragalysis-2/maxwin/BulkDock/SCRATCH/511024/C29803-P7

>  <fragmenstein_runtime>  (1258) 
13.681774854660034

>  <fragmenstein_outcome>  (1258) 
too moved

>  <fragmenstein_mode>  (1258) 
expansion

>  <fragmenstein_error>  (1258) 


$$$$
C47086-P97
     RDKit          3D

 31 33  0  0  0  0  0  0  0  0999 V2000
    7.7149   -1.8955   22.3692 O   0  0  0  0  0  0  0  0  0  0  0  0
    7.5315   -2.7525   21.5432 C   0  0  0  0  0  0  0  0  0  0  0  0
    8.8877   -3.6882   20.6103 N   0  0  0  0  0  0  0  0  0  0  0  0
   10.9438   -3.6732   20.8513 C   0  0  0  0  0  0  0  0  0  0  0  0
   12.6486   -3.8756   20.1460 C   0  0  0  0  0  0  0  0  0  0  0  0
   13.6573   -2.8705   20.0534 C   0  0  0  0  0  0  0  0  0  0  0  0
   14.8538   -2.9469   19.3302 C   0  0  0  0  0  0  0  0  0  0  0  0
   15.2644   -4.2153   19.0330 C   0  0  0  0  0  0  0  0  0  0  0  0
   16.4007   -4.6414   18.3992 N   0  0  0  0  0  0  0  0  0  0  0  0
   16.5792   -5.9677   18.6548 C   0  0  0  0  0  0  0  0  0  0  0  0
   15.5041   -6.3924   19.4066 C   0  0  0  0  0  0  0  0  0  0  0  0
   14.5793   -5.3135   19.5353 C   0  0  0  0  0  0  0  0  0  0  0  0
   13.2632   -5.1292   20.0864 C   0  0  0  0  0  0  0  0  0  0  0  0
    6.2417   -3.4248   21.1009 N   0  0  0  0  0  0  0  0  0  0  0  0
    4.9445   -3.3104   21.5916 C   0  0  0  0  0  0  0  0  0  0  0  0
    4.5512   -2.6885   22.8163 C   0  0  0  0  0  0  0  0  0  0  0  0
    3.3858   -3.1491   23.2756 N   0  0  0  0  0  0  0  0  0  0  0  0
    2.9102   -3.9911   22.2901 O   0  0  0  0  0  0  0  0  0  0  0  0
    3.8446   -4.0880   21.2984 C   0  0  0  0  0  0  0  0  0  0  0  0
    8.4692   -4.2958   19.9141 H   0  0  0  0  0  0  0  0  0  0  0  0
   11.0172   -4.7881   20.7124 H   0  0  0  0  0  0  0  0  0  0  0  0
   11.3655   -3.6639   21.8886 H   0  0  0  0  0  0  0  0  0  0  0  0
   13.5927   -1.8917   20.5185 H   0  0  0  0  0  0  0  0  0  0  0  0
   15.4761   -2.0755   19.1639 H   0  0  0  0  0  0  0  0  0  0  0  0
   17.0652   -4.0388   17.9334 H   0  0  0  0  0  0  0  0  0  0  0  0
   17.4575   -6.4950   18.3074 H   0  0  0  0  0  0  0  0  0  0  0  0
   15.3829   -7.4057   19.7678 H   0  0  0  0  0  0  0  0  0  0  0  0
   12.7566   -5.9618   20.5495 H   0  0  0  0  0  0  0  0  0  0  0  0
    6.4382   -4.0419   20.3266 H   0  0  0  0  0  0  0  0  0  0  0  0
    5.1094   -1.9959   23.4284 H   0  0  0  0  0  0  0  0  0  0  0  0
    3.6136   -4.8128   20.5337 H   0  0  0  0  0  0  0  0  0  0  0  0
  1  2  2  0
  2  3  1  0
  3  4  1  0
  4  5  1  0
  5  6  2  0
  6  7  1  0
  7  8  2  0
  8  9  1  0
  9 10  1  0
 10 11  2  0
 11 12  1  0
 12 13  2  0
  2 14  1  0
 14 15  1  0
 15 16  1  0
 16 17  2  0
 17 18  1  0
 18 19  1  0
 13  5  1  0
 19 15  2  0
 12  8  1  0
  3 20  1  0
  4 21  1  0
  4 22  1  0
  6 23  1  0
  7 24  1  0
  9 25  1  0
 10 26  1  0
 11 27  1  0
 13 28  1  0
 14 29  1  0
 16 30  1  0
 19 31  1  0
M  END
>  <Energy>  (1259) 
250.38504860503355

>  <compound_id>  (1259) 
47086

>  <target_id>  (1259) 
1

>  <reference_id>  (1259) 
97

>  <inspiration_ids>  (1259) 
[97, 7]

>  <energy_score>  (1259) 
276.56002836030257

>  <distance_score>  (1259) 
14.251167007654228

>  <path>  (1259) 
/opt/xchem-fragalysis-2/maxwin/BulkDock/SCRATCH/511024/C47086-P97/C47086-P97.minimised.mol

>  <scratch_subdir>  (1259) 
/opt/xchem-fragalysis-2/maxwin/BulkDock/SCRATCH/511024/C47086-P97

>  <fragmenstein_runtime>  (1259) 
8.41599416732788

>  <fragmenstein_outcome>  (1259) 
too moved

>  <fragmenstein_mode>  (1259) 
expansion

>  <fragmenstein_error>  (1259) 


$$$$
C47086-P7
     RDKit          3D

 31 33  0  0  0  0  0  0  0  0999 V2000
    3.8116    4.5354   24.2041 O   0  0  0  0  0  0  0  0  0  0  0  0
    3.2036    3.9682   23.3725 C   0  0  0  0  0  0  0  0  0  0  0  0
    3.6264    3.5739   21.9438 N   0  0  0  0  0  0  0  0  0  0  0  0
    4.8543    3.8763   21.1903 C   0  0  0  0  0  0  0  0  0  0  0  0
    5.5765    2.8793   20.2649 C   0  0  0  0  0  0  0  0  0  0  0  0
    5.2045    1.5546   20.0253 C   0  0  0  0  0  0  0  0  0  0  0  0
    5.8530    0.7583   19.0441 C   0  0  0  0  0  0  0  0  0  0  0  0
    6.9072    1.3194   18.3017 C   0  0  0  0  0  0  0  0  0  0  0  0
    7.6338    0.8403   17.2315 N   0  0  0  0  0  0  0  0  0  0  0  0
    8.5907    1.7453   16.8528 C   0  0  0  0  0  0  0  0  0  0  0  0
    8.4592    2.8488   17.6648 C   0  0  0  0  0  0  0  0  0  0  0  0
    7.3748    2.6048   18.5596 C   0  0  0  0  0  0  0  0  0  0  0  0
    6.7092    3.3709   19.5501 C   0  0  0  0  0  0  0  0  0  0  0  0
    1.7822    3.4496   23.3894 N   0  0  0  0  0  0  0  0  0  0  0  0
    0.8333    3.4168   24.4214 C   0  0  0  0  0  0  0  0  0  0  0  0
    0.9506    3.6497   25.8207 C   0  0  0  0  0  0  0  0  0  0  0  0
   -0.1892    3.4218   26.4938 N   0  0  0  0  0  0  0  0  0  0  0  0
   -1.1098    3.0572   25.5262 O   0  0  0  0  0  0  0  0  0  0  0  0
   -0.5008    3.0753   24.3089 C   0  0  0  0  0  0  0  0  0  0  0  0
    2.9019    3.0260   21.5219 H   0  0  0  0  0  0  0  0  0  0  0  0
    4.5655    4.7258   20.5581 H   0  0  0  0  0  0  0  0  0  0  0  0
    5.5816    4.2625   21.9129 H   0  0  0  0  0  0  0  0  0  0  0  0
    4.3815    1.1154   20.5893 H   0  0  0  0  0  0  0  0  0  0  0  0
    5.5060   -0.2552   18.8603 H   0  0  0  0  0  0  0  0  0  0  0  0
    7.4336   -0.0162   16.7352 H   0  0  0  0  0  0  0  0  0  0  0  0
    9.2569    1.5402   16.0241 H   0  0  0  0  0  0  0  0  0  0  0  0
    9.0490    3.7542   17.6008 H   0  0  0  0  0  0  0  0  0  0  0  0
    7.0485    4.3907   19.7256 H   0  0  0  0  0  0  0  0  0  0  0  0
    1.5506    3.0876   22.4850 H   0  0  0  0  0  0  0  0  0  0  0  0
    1.8331    3.9463   26.3718 H   0  0  0  0  0  0  0  0  0  0  0  0
   -1.1351    2.8098   23.4783 H   0  0  0  0  0  0  0  0  0  0  0  0
  1  2  2  0
  2  3  1  0
  3  4  1  0
  4  5  1  0
  5  6  2  0
  6  7  1  0
  7  8  2  0
  8  9  1  0
  9 10  1  0
 10 11  2  0
 11 12  1  0
 12 13  2  0
  2 14  1  0
 14 15  1  0
 15 16  1  0
 16 17  2  0
 17 18  1  0
 18 19  1  0
 13  5  1  0
 19 15  2  0
 12  8  1  0
  3 20  1  0
  4 21  1  0
  4 22  1  0
  6 23  1  0
  7 24  1  0
  9 25  1  0
 10 26  1  0
 11 27  1  0
 13 28  1  0
 14 29  1  0
 16 30  1  0
 19 31  1  0
M  END
>  <Energy>  (1260) 
-16.99117354392861

>  <compound_id>  (1260) 
47086

>  <target_id>  (1260) 
1

>  <reference_id>  (1260) 
7

>  <inspiration_ids>  (1260) 
[97, 7]

>  <energy_score>  (1260) 
9.183806211338947

>  <distance_score>  (1260) 
12.623166333676188

>  <path>  (1260) 
/opt/xchem-fragalysis-2/maxwin/BulkDock/SCRATCH/511024/C47086-P7/C47086-P7.minimised.mol

>  <scratch_subdir>  (1260) 
/opt/xchem-fragalysis-2/maxwin/BulkDock/SCRATCH/511024/C47086-P7

>  <fragmenstein_runtime>  (1260) 
8.837837934494019

>  <fragmenstein_outcome>  (1260) 
too moved

>  <fragmenstein_mode>  (1260) 
expansion

>  <fragmenstein_error>  (1260) 


$$$$
C29874-P97
     RDKit          3D

 31 33  0  0  0  0  0  0  0  0999 V2000
    5.4751    0.3716   23.0634 O   0  0  0  0  0  0  0  0  0  0  0  0
    5.6318   -0.6917   23.5479 C   0  0  0  0  0  0  0  0  0  0  0  0
    6.2292   -1.9613   22.9525 N   0  0  0  0  0  0  0  0  0  0  0  0
    6.6948   -2.2628   21.5526 C   0  0  0  0  0  0  0  0  0  0  0  0
    7.8045   -3.5032   21.1842 C   0  0  0  0  0  0  0  0  0  0  0  0
    7.9117   -4.6884   20.2356 C   0  0  0  0  0  0  0  0  0  0  0  0
    9.6471   -5.4253   19.8440 C   0  0  0  0  0  0  0  0  0  0  0  0
   11.3002   -5.2225   20.3469 C   0  0  0  0  0  0  0  0  0  0  0  0
   12.6378   -5.3075   20.0861 N   0  0  0  0  0  0  0  0  0  0  0  0
   13.2917   -4.7685   21.1584 C   0  0  0  0  0  0  0  0  0  0  0  0
   12.3125   -4.0763   21.8446 C   0  0  0  0  0  0  0  0  0  0  0  0
   11.1799   -3.9424   20.9158 C   0  0  0  0  0  0  0  0  0  0  0  0
    9.3762   -3.4703   20.5702 C   0  0  0  0  0  0  0  0  0  0  0  0
    5.1927   -1.2288   24.9279 N   0  0  0  0  0  0  0  0  0  0  0  0
    4.4084   -0.6343   25.9373 C   0  0  0  0  0  0  0  0  0  0  0  0
    3.8751   -1.3371   27.0940 C   0  0  0  0  0  0  0  0  0  0  0  0
    3.0290   -0.7082   27.9139 N   0  0  0  0  0  0  0  0  0  0  0  0
    2.7918    0.8137   27.3013 S   0  0  0  0  0  0  0  0  0  0  0  0
    3.8474    0.6288   25.9460 C   0  0  0  0  0  0  0  0  0  0  0  0
    6.2906   -2.6636   23.6630 H   0  0  0  0  0  0  0  0  0  0  0  0
    7.0574   -1.2926   21.1768 H   0  0  0  0  0  0  0  0  0  0  0  0
    5.7621   -2.4324   20.9972 H   0  0  0  0  0  0  0  0  0  0  0  0
    7.0043   -5.0736   19.7486 H   0  0  0  0  0  0  0  0  0  0  0  0
    9.6846   -5.9992   18.9878 H   0  0  0  0  0  0  0  0  0  0  0  0
   13.0822   -5.5885   19.2298 H   0  0  0  0  0  0  0  0  0  0  0  0
   14.3468   -4.9157   21.3383 H   0  0  0  0  0  0  0  0  0  0  0  0
   12.4512   -3.5782   22.7945 H   0  0  0  0  0  0  0  0  0  0  0  0
    8.9873   -3.5172   19.6525 H   0  0  0  0  0  0  0  0  0  0  0  0
    5.4150   -2.2102   24.9935 H   0  0  0  0  0  0  0  0  0  0  0  0
    4.1010   -2.3642   27.3393 H   0  0  0  0  0  0  0  0  0  0  0  0
    3.9611    1.4145   25.2128 H   0  0  0  0  0  0  0  0  0  0  0  0
  1  2  2  0
  2  3  1  0
  3  4  1  0
  4  5  1  0
  5  6  2  0
  6  7  1  0
  7  8  2  0
  8  9  1  0
  9 10  1  0
 10 11  2  0
 11 12  1  0
 12 13  2  0
  2 14  1  0
 14 15  1  0
 15 16  1  0
 16 17  2  0
 17 18  1  0
 18 19  1  0
 13  5  1  0
 19 15  2  0
 12  8  1  0
  3 20  1  0
  4 21  1  0
  4 22  1  0
  6 23  1  0
  7 24  1  0
  9 25  1  0
 10 26  1  0
 11 27  1  0
 13 28  1  0
 14 29  1  0
 16 30  1  0
 19 31  1  0
M  END
>  <Energy>  (1261) 
449.58890556735929

>  <compound_id>  (1261) 
29874

>  <target_id>  (1261) 
1

>  <reference_id>  (1261) 
97

>  <inspiration_ids>  (1261) 
[97, 7]

>  <energy_score>  (1261) 
475.0080161595893

>  <distance_score>  (1261) 
12.842312041799316

>  <path>  (1261) 
/opt/xchem-fragalysis-2/maxwin/BulkDock/SCRATCH/511024/C29874-P97/C29874-P97.minimised.mol

>  <scratch_subdir>  (1261) 
/opt/xchem-fragalysis-2/maxwin/BulkDock/SCRATCH/511024/C29874-P97

>  <fragmenstein_runtime>  (1261) 
6.774643898010254

>  <fragmenstein_outcome>  (1261) 
too moved

>  <fragmenstein_mode>  (1261) 
expansion

>  <fragmenstein_error>  (1261) 


$$$$
C29874-P7
     RDKit          3D

 31 33  0  0  0  0  0  0  0  0999 V2000
    5.3721   -1.3544   27.4181 O   0  0  0  0  0  0  0  0  0  0  0  0
    4.7291   -0.7894   26.6133 C   0  0  0  0  0  0  0  0  0  0  0  0
    5.1400   -0.2717   25.2257 N   0  0  0  0  0  0  0  0  0  0  0  0
    6.4524   -0.2470   24.5618 C   0  0  0  0  0  0  0  0  0  0  0  0
    6.5426   -0.0615   23.0469 C   0  0  0  0  0  0  0  0  0  0  0  0
    5.8609   -0.9072   22.1694 C   0  0  0  0  0  0  0  0  0  0  0  0
    5.8875   -0.7316   20.7754 C   0  0  0  0  0  0  0  0  0  0  0  0
    6.6738    0.2962   20.2508 C   0  0  0  0  0  0  0  0  0  0  0  0
    6.8394    0.7195   18.9507 N   0  0  0  0  0  0  0  0  0  0  0  0
    7.6742    1.8025   18.9123 C   0  0  0  0  0  0  0  0  0  0  0  0
    8.0600    2.0766   20.2087 C   0  0  0  0  0  0  0  0  0  0  0  0
    7.4268    1.1334   21.0691 C   0  0  0  0  0  0  0  0  0  0  0  0
    7.3739    0.9351   22.4759 C   0  0  0  0  0  0  0  0  0  0  0  0
    3.3057   -0.2814   26.6875 N   0  0  0  0  0  0  0  0  0  0  0  0
    2.3296   -0.4239   27.6977 C   0  0  0  0  0  0  0  0  0  0  0  0
    2.4185   -1.2073   28.9067 C   0  0  0  0  0  0  0  0  0  0  0  0
    1.3632   -1.2522   29.7274 N   0  0  0  0  0  0  0  0  0  0  0  0
    0.1637   -0.3136   29.0765 S   0  0  0  0  0  0  0  0  0  0  0  0
    1.0829    0.1898   27.7102 C   0  0  0  0  0  0  0  0  0  0  0  0
    4.3262    0.0956   24.7505 H   0  0  0  0  0  0  0  0  0  0  0  0
    7.0013    0.5636   25.0557 H   0  0  0  0  0  0  0  0  0  0  0  0
    6.9753   -1.1707   24.8324 H   0  0  0  0  0  0  0  0  0  0  0  0
    5.2243   -1.6899   22.5757 H   0  0  0  0  0  0  0  0  0  0  0  0
    5.2876   -1.3741   20.1375 H   0  0  0  0  0  0  0  0  0  0  0  0
    6.3493    0.3255   18.1595 H   0  0  0  0  0  0  0  0  0  0  0  0
    7.9087    2.2977   17.9793 H   0  0  0  0  0  0  0  0  0  0  0  0
    8.7057    2.8899   20.5148 H   0  0  0  0  0  0  0  0  0  0  0  0
    7.9451    1.5999   23.1201 H   0  0  0  0  0  0  0  0  0  0  0  0
    3.0364    0.0839   25.7928 H   0  0  0  0  0  0  0  0  0  0  0  0
    3.2848   -1.7894   29.1968 H   0  0  0  0  0  0  0  0  0  0  0  0
    0.6564    0.8945   27.0160 H   0  0  0  0  0  0  0  0  0  0  0  0
  1  2  2  0
  2  3  1  0
  3  4  1  0
  4  5  1  0
  5  6  2  0
  6  7  1  0
  7  8  2  0
  8  9  1  0
  9 10  1  0
 10 11  2  0
 11 12  1  0
 12 13  2  0
  2 14  1  0
 14 15  1  0
 15 16  1  0
 16 17  2  0
 17 18  1  0
 18 19  1  0
 13  5  1  0
 19 15  2  0
 12  8  1  0
  3 20  1  0
  4 21  1  0
  4 22  1  0
  6 23  1  0
  7 24  1  0
  9 25  1  0
 10 26  1  0
 11 27  1  0
 13 28  1  0
 14 29  1  0
 16 30  1  0
 19 31  1  0
M  END
>  <Energy>  (1262) 
-23.656586922528568

>  <compound_id>  (1262) 
29874

>  <target_id>  (1262) 
1

>  <reference_id>  (1262) 
7

>  <inspiration_ids>  (1262) 
[97, 7]

>  <energy_score>  (1262) 
1.7625236696971456

>  <distance_score>  (1262) 
12.095292456587028

>  <path>  (1262) 
/opt/xchem-fragalysis-2/maxwin/BulkDock/SCRATCH/511024/C29874-P7/C29874-P7.minimised.mol

>  <scratch_subdir>  (1262) 
/opt/xchem-fragalysis-2/maxwin/BulkDock/SCRATCH/511024/C29874-P7

>  <fragmenstein_runtime>  (1262) 
8.130446434020996

>  <fragmenstein_outcome>  (1262) 
too moved

>  <fragmenstein_mode>  (1262) 
expansion

>  <fragmenstein_error>  (1262) 


$$$$
C47087-P97
     RDKit          3D

 39 42  0  0  0  0  0  0  0  0999 V2000
    4.5604   -0.6516   27.2999 O   0  0  0  0  0  0  0  0  0  0  0  0
    3.7197   -1.0402   26.5727 C   0  0  0  0  0  0  0  0  0  0  0  0
    3.8285   -1.6048   25.1644 N   0  0  0  0  0  0  0  0  0  0  0  0
    5.0037   -1.9182   24.3505 C   0  0  0  0  0  0  0  0  0  0  0  0
    5.6705   -0.9207   23.3952 C   0  0  0  0  0  0  0  0  0  0  0  0
    6.6394   -0.0287   23.8764 C   0  0  0  0  0  0  0  0  0  0  0  0
    7.4650    0.7325   23.0202 C   0  0  0  0  0  0  0  0  0  0  0  0
    7.2940    0.6007   21.6379 C   0  0  0  0  0  0  0  0  0  0  0  0
    7.9699    1.1905   20.5902 N   0  0  0  0  0  0  0  0  0  0  0  0
    7.4228    0.7999   19.3968 C   0  0  0  0  0  0  0  0  0  0  0  0
    6.3722   -0.0445   19.6852 C   0  0  0  0  0  0  0  0  0  0  0  0
    6.3077   -0.2208   21.0999 C   0  0  0  0  0  0  0  0  0  0  0  0
    5.5018   -0.9946   21.9877 C   0  0  0  0  0  0  0  0  0  0  0  0
    2.2331   -1.2158   26.8056 N   0  0  0  0  0  0  0  0  0  0  0  0
    1.4654   -1.0175   27.9422 C   0  0  0  0  0  0  0  0  0  0  0  0
    1.8366   -0.4644   29.2153 C   0  0  0  0  0  0  0  0  0  0  0  0
    0.6864   -0.4775   29.9629 C   0  0  0  0  0  0  0  0  0  0  0  0
   -0.2533   -1.0153   29.1593 N   0  0  0  0  0  0  0  0  0  0  0  0
    0.1533   -1.3498   27.9448 N   0  0  0  0  0  0  0  0  0  0  0  0
   -1.5753   -1.0947   29.7380 C   0  0  0  0  0  0  0  0  0  0  0  0
   -1.2610   -0.8479   31.2267 C   0  0  0  0  0  0  0  0  0  0  0  0
    0.1134   -0.1191   31.2691 C   0  0  0  0  0  0  0  0  0  0  0  0
    2.8990   -1.7657   24.7937 H   0  0  0  0  0  0  0  0  0  0  0  0
    4.7247   -2.8065   23.7703 H   0  0  0  0  0  0  0  0  0  0  0  0
    5.7748   -2.2570   25.0544 H   0  0  0  0  0  0  0  0  0  0  0  0
    6.7959    0.0540   24.9534 H   0  0  0  0  0  0  0  0  0  0  0  0
    8.2219    1.3901   23.4381 H   0  0  0  0  0  0  0  0  0  0  0  0
    8.7279    1.8504   20.7041 H   0  0  0  0  0  0  0  0  0  0  0  0
    7.7966    1.1872   18.4586 H   0  0  0  0  0  0  0  0  0  0  0  0
    5.7105   -0.5041   18.9620 H   0  0  0  0  0  0  0  0  0  0  0  0
    4.7645   -1.6756   21.5667 H   0  0  0  0  0  0  0  0  0  0  0  0
    1.8175   -1.6486   25.9988 H   0  0  0  0  0  0  0  0  0  0  0  0
    2.8140   -0.1033   29.5029 H   0  0  0  0  0  0  0  0  0  0  0  0
   -2.1763   -0.2932   29.3006 H   0  0  0  0  0  0  0  0  0  0  0  0
   -2.0062   -2.0798   29.5468 H   0  0  0  0  0  0  0  0  0  0  0  0
   -2.0496   -0.2830   31.7333 H   0  0  0  0  0  0  0  0  0  0  0  0
   -1.1695   -1.8142   31.7400 H   0  0  0  0  0  0  0  0  0  0  0  0
   -0.0299    0.9636   31.3445 H   0  0  0  0  0  0  0  0  0  0  0  0
    0.7194   -0.4636   32.1111 H   0  0  0  0  0  0  0  0  0  0  0  0
  1  2  2  0
  2  3  1  0
  3  4  1  0
  4  5  1  0
  5  6  2  0
  6  7  1  0
  7  8  2  0
  8  9  1  0
  9 10  1  0
 10 11  2  0
 11 12  1  0
 12 13  2  0
  2 14  1  0
 14 15  1  0
 15 16  1  0
 16 17  2  0
 17 18  1  0
 18 19  1  0
 18 20  1  0
 20 21  1  0
 21 22  1  0
 13  5  1  0
 19 15  2  0
 12  8  1  0
 22 17  1  0
  3 23  1  0
  4 24  1  0
  4 25  1  0
  6 26  1  0
  7 27  1  0
  9 28  1  0
 10 29  1  0
 11 30  1  0
 13 31  1  0
 14 32  1  0
 16 33  1  0
 20 34  1  0
 20 35  1  0
 21 36  1  0
 21 37  1  0
 22 38  1  0
 22 39  1  0
M  END
>  <Energy>  (1263) 
-42.845412831768378

>  <compound_id>  (1263) 
47087

>  <target_id>  (1263) 
1

>  <reference_id>  (1263) 
97

>  <inspiration_ids>  (1263) 
[97, 7]

>  <energy_score>  (1263) 
-27.152762563399506

>  <distance_score>  (1263) 
12.039672411716712

>  <path>  (1263) 
/opt/xchem-fragalysis-2/maxwin/BulkDock/SCRATCH/511024/C47087-P97/C47087-P97.minimised.mol

>  <scratch_subdir>  (1263) 
/opt/xchem-fragalysis-2/maxwin/BulkDock/SCRATCH/511024/C47087-P97

>  <fragmenstein_runtime>  (1263) 
11.689666986465454

>  <fragmenstein_outcome>  (1263) 
too moved

>  <fragmenstein_mode>  (1263) 
expansion

>  <fragmenstein_error>  (1263) 


$$$$
C47087-P7
     RDKit          3D

 39 42  0  0  0  0  0  0  0  0999 V2000
    5.3358   -0.4866   23.5396 O   0  0  0  0  0  0  0  0  0  0  0  0
    5.3074   -1.6239   23.8330 C   0  0  0  0  0  0  0  0  0  0  0  0
    5.7987   -2.8547   23.0263 N   0  0  0  0  0  0  0  0  0  0  0  0
    6.3358   -2.9530   21.6495 C   0  0  0  0  0  0  0  0  0  0  0  0
    7.5514   -3.7547   21.1841 C   0  0  0  0  0  0  0  0  0  0  0  0
    7.7914   -4.7642   20.3407 C   0  0  0  0  0  0  0  0  0  0  0  0
    9.6483   -5.3201   20.0076 C   0  0  0  0  0  0  0  0  0  0  0  0
   11.1333   -5.1481   20.5838 C   0  0  0  0  0  0  0  0  0  0  0  0
   12.3814   -5.6419   20.7252 N   0  0  0  0  0  0  0  0  0  0  0  0
   13.2826   -4.6405   20.8512 C   0  0  0  0  0  0  0  0  0  0  0  0
   12.5283   -3.4964   20.9074 C   0  0  0  0  0  0  0  0  0  0  0  0
   11.0735   -3.8404   21.1028 C   0  0  0  0  0  0  0  0  0  0  0  0
    9.2599   -3.3737   20.7365 C   0  0  0  0  0  0  0  0  0  0  0  0
    4.6976   -2.3027   25.0418 N   0  0  0  0  0  0  0  0  0  0  0  0
    3.9278   -1.7847   26.0843 C   0  0  0  0  0  0  0  0  0  0  0  0
    3.4719   -0.4296   26.2762 C   0  0  0  0  0  0  0  0  0  0  0  0
    2.6167   -0.4769   27.3488 C   0  0  0  0  0  0  0  0  0  0  0  0
    2.6008   -1.7715   27.7231 N   0  0  0  0  0  0  0  0  0  0  0  0
    3.4511   -2.5650   27.0809 N   0  0  0  0  0  0  0  0  0  0  0  0
    1.6893   -2.0802   28.8031 C   0  0  0  0  0  0  0  0  0  0  0  0
    0.8392   -0.7946   28.8477 C   0  0  0  0  0  0  0  0  0  0  0  0
    1.6933    0.3162   28.1721 C   0  0  0  0  0  0  0  0  0  0  0  0
    5.5559   -3.6942   23.5205 H   0  0  0  0  0  0  0  0  0  0  0  0
    5.4732   -3.3227   21.0788 H   0  0  0  0  0  0  0  0  0  0  0  0
    6.4686   -1.9021   21.3633 H   0  0  0  0  0  0  0  0  0  0  0  0
    6.9448   -5.3075   19.8740 H   0  0  0  0  0  0  0  0  0  0  0  0
    9.5809   -6.0902   19.2980 H   0  0  0  0  0  0  0  0  0  0  0  0
   12.5965   -6.6013   20.9193 H   0  0  0  0  0  0  0  0  0  0  0  0
   14.3502   -4.8077   20.8422 H   0  0  0  0  0  0  0  0  0  0  0  0
   13.0182   -2.5388   20.8375 H   0  0  0  0  0  0  0  0  0  0  0  0
    8.9761   -3.6586   19.7932 H   0  0  0  0  0  0  0  0  0  0  0  0
    4.9228   -3.2747   25.0247 H   0  0  0  0  0  0  0  0  0  0  0  0
    3.7036    0.4206   25.6506 H   0  0  0  0  0  0  0  0  0  0  0  0
    1.1077   -2.9700   28.5522 H   0  0  0  0  0  0  0  0  0  0  0  0
    2.2803   -2.2243   29.7113 H   0  0  0  0  0  0  0  0  0  0  0  0
   -0.0761   -0.9484   28.2608 H   0  0  0  0  0  0  0  0  0  0  0  0
    0.5340   -0.5277   29.8639 H   0  0  0  0  0  0  0  0  0  0  0  0
    1.0688    0.9950   27.5854 H   0  0  0  0  0  0  0  0  0  0  0  0
    2.2423    0.8896   28.9259 H   0  0  0  0  0  0  0  0  0  0  0  0
  1  2  2  0
  2  3  1  0
  3  4  1  0
  4  5  1  0
  5  6  2  0
  6  7  1  0
  7  8  2  0
  8  9  1  0
  9 10  1  0
 10 11  2  0
 11 12  1  0
 12 13  2  0
  2 14  1  0
 14 15  1  0
 15 16  1  0
 16 17  2  0
 17 18  1  0
 18 19  1  0
 18 20  1  0
 20 21  1  0
 21 22  1  0
 13  5  1  0
 19 15  2  0
 12  8  1  0
 22 17  1  0
  3 23  1  0
  4 24  1  0
  4 25  1  0
  6 26  1  0
  7 27  1  0
  9 28  1  0
 10 29  1  0
 11 30  1  0
 13 31  1  0
 14 32  1  0
 16 33  1  0
 20 34  1  0
 20 35  1  0
 21 36  1  0
 21 37  1  0
 22 38  1  0
 22 39  1  0
M  END
>  <Energy>  (1264) 
395.4673580395538

>  <compound_id>  (1264) 
47087

>  <target_id>  (1264) 
1

>  <reference_id>  (1264) 
7

>  <inspiration_ids>  (1264) 
[97, 7]

>  <energy_score>  (1264) 
411.160008307921

>  <distance_score>  (1264) 
12.415190500230349

>  <path>  (1264) 
/opt/xchem-fragalysis-2/maxwin/BulkDock/SCRATCH/511024/C47087-P7/C47087-P7.minimised.mol

>  <scratch_subdir>  (1264) 
/opt/xchem-fragalysis-2/maxwin/BulkDock/SCRATCH/511024/C47087-P7

>  <fragmenstein_runtime>  (1264) 
11.757651329040527

>  <fragmenstein_outcome>  (1264) 
too moved

>  <fragmenstein_mode>  (1264) 
expansion

>  <fragmenstein_error>  (1264) 


$$$$
C64802-P97
     RDKit          3D

 29 30  0  0  0  0  0  0  0  0999 V2000
   -5.2847   -3.0861   22.9087 C   0  0  0  0  0  0  0  0  0  0  0  0
   -4.6960   -3.3141   21.6160 O   0  0  0  0  0  0  0  0  0  0  0  0
   -4.0602   -2.1677   20.9537 C   0  0  0  0  0  0  0  0  0  0  0  0
   -5.2020   -1.2343   20.5272 C   0  0  0  0  0  0  0  0  0  0  0  0
   -3.1578   -2.5856   19.5873 C   0  0  0  0  0  0  0  0  0  0  0  0
   -1.8430   -1.9422   19.2069 N   0  0  0  0  0  0  0  0  0  0  0  0
   -1.7204   -0.5940   18.9115 C   0  0  0  0  0  0  0  0  0  0  0  0
   -0.4453   -0.3213   18.4580 C   0  0  0  0  0  0  0  0  0  0  0  0
    0.2757   -1.5371   18.4071 C   0  0  0  0  0  0  0  0  0  0  0  0
    1.6084   -1.8526   18.0263 C   0  0  0  0  0  0  0  0  0  0  0  0
    2.0566   -3.1714   18.0787 C   0  0  0  0  0  0  0  0  0  0  0  0
    1.1798   -4.1717   18.4769 C   0  0  0  0  0  0  0  0  0  0  0  0
   -0.1538   -3.8838   18.8405 C   0  0  0  0  0  0  0  0  0  0  0  0
   -0.6096   -2.5484   18.8404 C   0  0  0  0  0  0  0  0  0  0  0  0
   -4.5135   -2.7716   23.6158 H   0  0  0  0  0  0  0  0  0  0  0  0
   -6.0959   -2.3587   22.8616 H   0  0  0  0  0  0  0  0  0  0  0  0
   -5.7182   -4.0352   23.2280 H   0  0  0  0  0  0  0  0  0  0  0  0
   -3.3782   -1.6881   21.6590 H   0  0  0  0  0  0  0  0  0  0  0  0
   -4.8014   -0.3001   20.1223 H   0  0  0  0  0  0  0  0  0  0  0  0
   -5.9175   -0.9884   21.3117 H   0  0  0  0  0  0  0  0  0  0  0  0
   -5.7959   -1.7136   19.7397 H   0  0  0  0  0  0  0  0  0  0  0  0
   -3.7887   -2.4009   18.7070 H   0  0  0  0  0  0  0  0  0  0  0  0
   -2.9774   -3.6635   19.5906 H   0  0  0  0  0  0  0  0  0  0  0  0
   -2.5600    0.0699   19.0629 H   0  0  0  0  0  0  0  0  0  0  0  0
   -0.0767    0.6573   18.1819 H   0  0  0  0  0  0  0  0  0  0  0  0
    2.2781   -1.0601   17.7056 H   0  0  0  0  0  0  0  0  0  0  0  0
    3.0758   -3.4159   17.8012 H   0  0  0  0  0  0  0  0  0  0  0  0
    1.5239   -5.2032   18.5138 H   0  0  0  0  0  0  0  0  0  0  0  0
   -0.8117   -4.6942   19.1383 H   0  0  0  0  0  0  0  0  0  0  0  0
  1  2  1  0
  2  3  1  0
  3  4  1  0
  3  5  1  0
  5  6  1  0
  6  7  1  0
  7  8  2  0
  8  9  1  0
  9 10  2  0
 10 11  1  0
 11 12  2  0
 12 13  1  0
 13 14  2  0
 14  6  1  0
 14  9  1  0
  1 15  1  0
  1 16  1  0
  1 17  1  0
  3 18  1  0
  4 19  1  0
  4 20  1  0
  4 21  1  0
  5 22  1  0
  5 23  1  0
  7 24  1  0
  8 25  1  0
 10 26  1  0
 11 27  1  0
 12 28  1  0
 13 29  1  0
M  END
>  <Energy>  (1265) 
55.599634133185312

>  <compound_id>  (1265) 
64802

>  <target_id>  (1265) 
1

>  <reference_id>  (1265) 
97

>  <inspiration_ids>  (1265) 
[97, 7]

>  <energy_score>  (1265) 
7.656782151079227

>  <distance_score>  (1265) 
15.276934400177845

>  <path>  (1265) 
/opt/xchem-fragalysis-2/maxwin/BulkDock/SCRATCH/511024/C64802-P97/C64802-P97.minimised.mol

>  <scratch_subdir>  (1265) 
/opt/xchem-fragalysis-2/maxwin/BulkDock/SCRATCH/511024/C64802-P97

>  <fragmenstein_runtime>  (1265) 
3.9470202922821045

>  <fragmenstein_outcome>  (1265) 
too moved

>  <fragmenstein_mode>  (1265) 
expansion

>  <fragmenstein_error>  (1265) 


$$$$
C64802-P7
     RDKit          3D

 29 30  0  0  0  0  0  0  0  0999 V2000
   -2.7020   -1.6537   31.3422 C   0  0  0  0  0  0  0  0  0  0  0  0
   -1.5630   -1.9671   30.5214 O   0  0  0  0  0  0  0  0  0  0  0  0
   -1.0788   -0.8888   29.6485 C   0  0  0  0  0  0  0  0  0  0  0  0
   -2.2212   -0.4735   28.7191 C   0  0  0  0  0  0  0  0  0  0  0  0
    0.2630   -1.3394   28.8086 C   0  0  0  0  0  0  0  0  0  0  0  0
    1.2149   -0.3892   28.1477 N   0  0  0  0  0  0  0  0  0  0  0  0
    1.1852    0.9842   28.2415 C   0  0  0  0  0  0  0  0  0  0  0  0
    2.2677    1.5241   27.5724 C   0  0  0  0  0  0  0  0  0  0  0  0
    3.0090    0.4687   26.9959 C   0  0  0  0  0  0  0  0  0  0  0  0
    4.1607    0.4347   26.1685 C   0  0  0  0  0  0  0  0  0  0  0  0
    4.5730   -0.7738   25.6229 C   0  0  0  0  0  0  0  0  0  0  0  0
    3.8610   -1.9218   25.9302 C   0  0  0  0  0  0  0  0  0  0  0  0
    2.8092   -1.9365   26.8608 C   0  0  0  0  0  0  0  0  0  0  0  0
    2.3404   -0.7166   27.3563 C   0  0  0  0  0  0  0  0  0  0  0  0
   -2.8040   -2.4453   32.0892 H   0  0  0  0  0  0  0  0  0  0  0  0
   -2.5517   -0.6984   31.8525 H   0  0  0  0  0  0  0  0  0  0  0  0
   -3.6115   -1.6337   30.7369 H   0  0  0  0  0  0  0  0  0  0  0  0
   -0.7922   -0.0503   30.2937 H   0  0  0  0  0  0  0  0  0  0  0  0
   -2.6483   -1.3454   28.2133 H   0  0  0  0  0  0  0  0  0  0  0  0
   -3.0305    0.0138   29.2713 H   0  0  0  0  0  0  0  0  0  0  0  0
   -1.8710    0.2323   27.9598 H   0  0  0  0  0  0  0  0  0  0  0  0
    0.8962   -1.9068   29.5031 H   0  0  0  0  0  0  0  0  0  0  0  0
   -0.0496   -2.0355   28.0224 H   0  0  0  0  0  0  0  0  0  0  0  0
    0.4041    1.4825   28.7976 H   0  0  0  0  0  0  0  0  0  0  0  0
    2.4885    2.5798   27.4930 H   0  0  0  0  0  0  0  0  0  0  0  0
    4.6640    1.3550   25.8923 H   0  0  0  0  0  0  0  0  0  0  0  0
    5.3868   -0.8113   24.9076 H   0  0  0  0  0  0  0  0  0  0  0  0
    4.0851   -2.8376   25.4007 H   0  0  0  0  0  0  0  0  0  0  0  0
    2.2851   -2.8584   27.0762 H   0  0  0  0  0  0  0  0  0  0  0  0
  1  2  1  0
  2  3  1  0
  3  4  1  0
  3  5  1  0
  5  6  1  0
  6  7  1  0
  7  8  2  0
  8  9  1  0
  9 10  2  0
 10 11  1  0
 11 12  2  0
 12 13  1  0
 13 14  2  0
 14  6  1  0
 14  9  1  0
  1 15  1  0
  1 16  1  0
  1 17  1  0
  3 18  1  0
  4 19  1  0
  4 20  1  0
  4 21  1  0
  5 22  1  0
  5 23  1  0
  7 24  1  0
  8 25  1  0
 10 26  1  0
 11 27  1  0
 12 28  1  0
 13 29  1  0
M  END
>  <Energy>  (1266) 
49.676735005044776

>  <compound_id>  (1266) 
64802

>  <target_id>  (1266) 
1

>  <reference_id>  (1266) 
7

>  <inspiration_ids>  (1266) 
[97, 7]

>  <energy_score>  (1266) 
1.7338830229385849

>  <distance_score>  (1266) 
14.927143676786688

>  <path>  (1266) 
/opt/xchem-fragalysis-2/maxwin/BulkDock/SCRATCH/511024/C64802-P7/C64802-P7.minimised.mol

>  <scratch_subdir>  (1266) 
/opt/xchem-fragalysis-2/maxwin/BulkDock/SCRATCH/511024/C64802-P7

>  <fragmenstein_runtime>  (1266) 
4.530095815658569

>  <fragmenstein_outcome>  (1266) 
too moved

>  <fragmenstein_mode>  (1266) 
expansion

>  <fragmenstein_error>  (1266) 


$$$$
C64803-P97
     RDKit          3D

 24 25  0  0  0  0  0  0  0  0999 V2000
    1.5415   -2.2197   28.0696 C   0  0  0  0  0  0  0  0  0  0  0  0
    2.3385   -1.0672   27.4563 C   0  0  0  0  0  0  0  0  0  0  0  0
    1.7829    0.0359   27.3999 O   0  0  0  0  0  0  0  0  0  0  0  0
    3.8860   -1.3072   27.1603 C   0  0  0  0  0  0  0  0  0  0  0  0
    4.6458   -0.9557   25.8351 C   0  0  0  0  0  0  0  0  0  0  0  0
    4.2380   -1.4610   24.6060 C   0  0  0  0  0  0  0  0  0  0  0  0
    4.9407   -1.2192   23.3890 C   0  0  0  0  0  0  0  0  0  0  0  0
    6.1669   -0.5460   23.3831 C   0  0  0  0  0  0  0  0  0  0  0  0
    7.0997   -0.1708   22.3734 C   0  0  0  0  0  0  0  0  0  0  0  0
    8.1473    0.4593   23.0014 C   0  0  0  0  0  0  0  0  0  0  0  0
    7.8639    0.4904   24.3483 N   0  0  0  0  0  0  0  0  0  0  0  0
    6.6428   -0.1036   24.6116 C   0  0  0  0  0  0  0  0  0  0  0  0
    5.9042   -0.2842   25.8272 C   0  0  0  0  0  0  0  0  0  0  0  0
    1.7453   -3.1376   27.5165 H   0  0  0  0  0  0  0  0  0  0  0  0
    0.4716   -2.0043   28.0079 H   0  0  0  0  0  0  0  0  0  0  0  0
    1.8364   -2.3421   29.1142 H   0  0  0  0  0  0  0  0  0  0  0  0
    4.0713   -2.3761   27.3239 H   0  0  0  0  0  0  0  0  0  0  0  0
    4.4024   -0.7935   27.9824 H   0  0  0  0  0  0  0  0  0  0  0  0
    3.3410   -2.0756   24.5641 H   0  0  0  0  0  0  0  0  0  0  0  0
    4.5273   -1.5880   22.4515 H   0  0  0  0  0  0  0  0  0  0  0  0
    6.9890   -0.3419   21.3120 H   0  0  0  0  0  0  0  0  0  0  0  0
    9.0581    0.9018   22.6212 H   0  0  0  0  0  0  0  0  0  0  0  0
    8.4508    0.9135   25.0536 H   0  0  0  0  0  0  0  0  0  0  0  0
    6.3214    0.0877   26.7602 H   0  0  0  0  0  0  0  0  0  0  0  0
  1  2  1  0
  2  3  2  0
  2  4  1  0
  4  5  1  0
  5  6  2  0
  6  7  1  0
  7  8  2  0
  8  9  1  0
  9 10  2  0
 10 11  1  0
 11 12  1  0
 12 13  2  0
 13  5  1  0
 12  8  1  0
  1 14  1  0
  1 15  1  0
  1 16  1  0
  4 17  1  0
  4 18  1  0
  6 19  1  0
  7 20  1  0
  9 21  1  0
 10 22  1  0
 11 23  1  0
 13 24  1  0
M  END
>  <Energy>  (1267) 
46.474507829204711

>  <compound_id>  (1267) 
64803

>  <target_id>  (1267) 
1

>  <reference_id>  (1267) 
97

>  <inspiration_ids>  (1267) 
[97, 7]

>  <energy_score>  (1267) 
3.290333045230568

>  <distance_score>  (1267) 
13.386680071255476

>  <path>  (1267) 
/opt/xchem-fragalysis-2/maxwin/BulkDock/SCRATCH/511024/C64803-P97/C64803-P97.minimised.mol

>  <scratch_subdir>  (1267) 
/opt/xchem-fragalysis-2/maxwin/BulkDock/SCRATCH/511024/C64803-P97

>  <fragmenstein_runtime>  (1267) 
4.892698287963867

>  <fragmenstein_outcome>  (1267) 
too moved

>  <fragmenstein_mode>  (1267) 
expansion

>  <fragmenstein_error>  (1267) 


$$$$
C64803-P7
     RDKit          3D

 24 25  0  0  0  0  0  0  0  0999 V2000
    1.6793   -2.2430   28.1175 C   0  0  0  0  0  0  0  0  0  0  0  0
    2.4685   -1.0741   27.5265 C   0  0  0  0  0  0  0  0  0  0  0  0
    1.9088    0.0285   27.4981 O   0  0  0  0  0  0  0  0  0  0  0  0
    4.0161   -1.2990   27.2182 C   0  0  0  0  0  0  0  0  0  0  0  0
    4.7617   -0.9553   25.8820 C   0  0  0  0  0  0  0  0  0  0  0  0
    4.4013   -1.5501   24.6776 C   0  0  0  0  0  0  0  0  0  0  0  0
    5.1010   -1.3283   23.4537 C   0  0  0  0  0  0  0  0  0  0  0  0
    6.2810   -0.5783   23.4201 C   0  0  0  0  0  0  0  0  0  0  0  0
    7.2026   -0.2018   22.3989 C   0  0  0  0  0  0  0  0  0  0  0  0
    8.1930    0.5384   22.9991 C   0  0  0  0  0  0  0  0  0  0  0  0
    7.8906    0.6233   24.3402 N   0  0  0  0  0  0  0  0  0  0  0  0
    6.7085   -0.0355   24.6260 C   0  0  0  0  0  0  0  0  0  0  0  0
    5.9694   -0.1986   25.8448 C   0  0  0  0  0  0  0  0  0  0  0  0
    1.9767   -2.3845   29.1590 H   0  0  0  0  0  0  0  0  0  0  0  0
    0.6081   -2.0329   28.0625 H   0  0  0  0  0  0  0  0  0  0  0  0
    1.8885   -3.1485   27.5463 H   0  0  0  0  0  0  0  0  0  0  0  0
    4.5349   -0.7709   28.0297 H   0  0  0  0  0  0  0  0  0  0  0  0
    4.2159   -2.3640   27.3956 H   0  0  0  0  0  0  0  0  0  0  0  0
    3.5436   -2.2210   24.6622 H   0  0  0  0  0  0  0  0  0  0  0  0
    4.7165   -1.7604   22.5313 H   0  0  0  0  0  0  0  0  0  0  0  0
    7.1207   -0.4476   21.3491 H   0  0  0  0  0  0  0  0  0  0  0  0
    9.0758    1.0238   22.6070 H   0  0  0  0  0  0  0  0  0  0  0  0
    8.4411    1.1187   25.0274 H   0  0  0  0  0  0  0  0  0  0  0  0
    6.3515    0.2497   26.7591 H   0  0  0  0  0  0  0  0  0  0  0  0
  1  2  1  0
  2  3  2  0
  2  4  1  0
  4  5  1  0
  5  6  2  0
  6  7  1  0
  7  8  2  0
  8  9  1  0
  9 10  2  0
 10 11  1  0
 11 12  1  0
 12 13  2  0
 13  5  1  0
 12  8  1  0
  1 14  1  0
  1 15  1  0
  1 16  1  0
  4 17  1  0
  4 18  1  0
  6 19  1  0
  7 20  1  0
  9 21  1  0
 10 22  1  0
 11 23  1  0
 13 24  1  0
M  END
>  <Energy>  (1268) 
46.892546448974876

>  <compound_id>  (1268) 
64803

>  <target_id>  (1268) 
1

>  <reference_id>  (1268) 
7

>  <inspiration_ids>  (1268) 
[97, 7]

>  <energy_score>  (1268) 
3.708371665000982

>  <distance_score>  (1268) 
13.450757702532012

>  <path>  (1268) 
/opt/xchem-fragalysis-2/maxwin/BulkDock/SCRATCH/511024/C64803-P7/C64803-P7.minimised.mol

>  <scratch_subdir>  (1268) 
/opt/xchem-fragalysis-2/maxwin/BulkDock/SCRATCH/511024/C64803-P7

>  <fragmenstein_runtime>  (1268) 
4.146716594696045

>  <fragmenstein_outcome>  (1268) 
too moved

>  <fragmenstein_mode>  (1268) 
expansion

>  <fragmenstein_error>  (1268) 


$$$$
C64804-P97
     RDKit          3D

 40 41  0  0  0  0  0  0  0  0999 V2000
    2.1260    0.8202   27.8276 C   0  0  0  0  0  0  0  0  0  0  0  0
    2.4558   -0.5184   28.5397 N   0  0  0  0  0  0  0  0  0  0  0  0
    1.2218   -1.3026   28.7573 C   0  0  0  0  0  0  0  0  0  0  0  0
    0.6886   -2.1326   28.0607 O   0  0  0  0  0  0  0  0  0  0  0  0
    0.4657   -0.8663   30.1173 C   0  0  0  0  0  0  0  0  0  0  0  0
   -0.9597   -1.5508   30.3543 C   0  0  0  0  0  0  0  0  0  0  0  0
   -1.8588   -1.2528   31.6275 C   0  0  0  0  0  0  0  0  0  0  0  0
   -2.8644   -2.3954   31.7727 C   0  0  0  0  0  0  0  0  0  0  0  0
   -1.0939   -1.1145   32.9400 C   0  0  0  0  0  0  0  0  0  0  0  0
   -2.6594    0.0455   31.4570 N   0  0  0  0  0  0  0  0  0  0  0  0
   -3.7071    0.1694   32.1213 O   0  0  0  0  0  0  0  0  0  0  0  0
   -2.1899    0.9099   30.7048 O   0  0  0  0  0  0  0  0  0  0  0  0
    3.5350   -0.5925   27.3846 C   0  0  0  0  0  0  0  0  0  0  0  0
    4.7920    0.0401   27.5329 C   0  0  0  0  0  0  0  0  0  0  0  0
    5.7748    0.0903   26.5063 C   0  0  0  0  0  0  0  0  0  0  0  0
    5.4988   -0.5435   25.2909 C   0  0  0  0  0  0  0  0  0  0  0  0
    6.2088   -0.5847   24.1068 N   0  0  0  0  0  0  0  0  0  0  0  0
    5.5400   -1.3405   23.1809 C   0  0  0  0  0  0  0  0  0  0  0  0
    4.3933   -1.8109   23.7870 C   0  0  0  0  0  0  0  0  0  0  0  0
    4.3342   -1.2887   25.1191 C   0  0  0  0  0  0  0  0  0  0  0  0
    3.3865   -1.3518   26.2013 C   0  0  0  0  0  0  0  0  0  0  0  0
    2.9060    1.5867   27.9245 H   0  0  0  0  0  0  0  0  0  0  0  0
    1.7230    0.6965   26.8174 H   0  0  0  0  0  0  0  0  0  0  0  0
    1.2803    1.2420   28.3874 H   0  0  0  0  0  0  0  0  0  0  0  0
    0.3392    0.2191   30.1096 H   0  0  0  0  0  0  0  0  0  0  0  0
    1.1291   -1.1350   30.9467 H   0  0  0  0  0  0  0  0  0  0  0  0
   -1.5605   -1.3775   29.4503 H   0  0  0  0  0  0  0  0  0  0  0  0
   -0.7469   -2.6296   30.3504 H   0  0  0  0  0  0  0  0  0  0  0  0
   -2.3238   -3.3419   31.8625 H   0  0  0  0  0  0  0  0  0  0  0  0
   -3.5260   -2.4514   30.9070 H   0  0  0  0  0  0  0  0  0  0  0  0
   -3.4942   -2.2955   32.6645 H   0  0  0  0  0  0  0  0  0  0  0  0
   -0.4985   -2.0123   33.1402 H   0  0  0  0  0  0  0  0  0  0  0  0
   -0.4058   -0.2618   32.9094 H   0  0  0  0  0  0  0  0  0  0  0  0
   -1.7621   -0.9600   33.7954 H   0  0  0  0  0  0  0  0  0  0  0  0
    5.0097    0.5533   28.4695 H   0  0  0  0  0  0  0  0  0  0  0  0
    6.6980    0.6397   26.6637 H   0  0  0  0  0  0  0  0  0  0  0  0
    7.0787   -0.0953   23.9511 H   0  0  0  0  0  0  0  0  0  0  0  0
    5.9162   -1.4756   22.1768 H   0  0  0  0  0  0  0  0  0  0  0  0
    3.6325   -2.4285   23.3223 H   0  0  0  0  0  0  0  0  0  0  0  0
    2.4905   -1.9473   26.0794 H   0  0  0  0  0  0  0  0  0  0  0  0
  1  2  1  0
  2  3  1  0
  3  4  2  0
  3  5  1  0
  5  6  1  0
  6  7  1  0
  7  8  1  0
  7  9  1  0
  7 10  1  0
 10 11  2  0
 10 12  1  0
  2 13  1  0
 13 14  2  0
 14 15  1  0
 15 16  2  0
 16 17  1  0
 17 18  1  0
 18 19  2  0
 19 20  1  0
 20 21  2  0
 21 13  1  0
 20 16  1  0
  1 22  1  0
  1 23  1  0
  1 24  1  0
  5 25  1  0
  5 26  1  0
  6 27  1  0
  6 28  1  0
  8 29  1  0
  8 30  1  0
  8 31  1  0
  9 32  1  0
  9 33  1  0
  9 34  1  0
 14 35  1  0
 15 36  1  0
 17 37  1  0
 18 38  1  0
 19 39  1  0
 21 40  1  0
M  CHG  2  10   1  12  -1
M  END
>  <Energy>  (1269) 
109.02804895220268

>  <compound_id>  (1269) 
64804

>  <target_id>  (1269) 
1

>  <reference_id>  (1269) 
97

>  <inspiration_ids>  (1269) 
[97, 7]

>  <energy_score>  (1269) 
33.13274303849761

>  <distance_score>  (1269) 
13.588582571856733

>  <path>  (1269) 
/opt/xchem-fragalysis-2/maxwin/BulkDock/SCRATCH/511024/C64804-P97/C64804-P97.minimised.mol

>  <scratch_subdir>  (1269) 
/opt/xchem-fragalysis-2/maxwin/BulkDock/SCRATCH/511024/C64804-P97

>  <fragmenstein_runtime>  (1269) 
8.311585664749146

>  <fragmenstein_outcome>  (1269) 
too moved

>  <fragmenstein_mode>  (1269) 
expansion

>  <fragmenstein_error>  (1269) 


$$$$
C64804-P7
     RDKit          3D

 40 41  0  0  0  0  0  0  0  0999 V2000
    1.6916   -2.6888   28.1608 C   0  0  0  0  0  0  0  0  0  0  0  0
    1.9896   -1.4217   28.9853 N   0  0  0  0  0  0  0  0  0  0  0  0
    0.7482   -0.6466   29.2013 C   0  0  0  0  0  0  0  0  0  0  0  0
    0.2540    0.2390   28.5460 O   0  0  0  0  0  0  0  0  0  0  0  0
   -0.0188   -1.1905   30.5188 C   0  0  0  0  0  0  0  0  0  0  0  0
   -1.4914   -0.6421   30.8187 C   0  0  0  0  0  0  0  0  0  0  0  0
   -2.2350   -1.0686   32.1628 C   0  0  0  0  0  0  0  0  0  0  0  0
   -1.3057   -0.9356   33.3752 C   0  0  0  0  0  0  0  0  0  0  0  0
   -2.8178   -2.4874   32.0886 C   0  0  0  0  0  0  0  0  0  0  0  0
   -3.4210   -0.1002   32.4442 N   0  0  0  0  0  0  0  0  0  0  0  0
   -4.4211   -0.5471   33.0395 O   0  0  0  0  0  0  0  0  0  0  0  0
   -3.2828    1.0820   32.1042 O   0  0  0  0  0  0  0  0  0  0  0  0
    3.1348   -1.2655   27.8883 C   0  0  0  0  0  0  0  0  0  0  0  0
    4.3341   -2.0186   27.9932 C   0  0  0  0  0  0  0  0  0  0  0  0
    5.3768   -1.9897   27.0302 C   0  0  0  0  0  0  0  0  0  0  0  0
    5.2431   -1.1244   25.9417 C   0  0  0  0  0  0  0  0  0  0  0  0
    6.0820   -0.8884   24.8717 N   0  0  0  0  0  0  0  0  0  0  0  0
    5.5592    0.0777   24.0566 C   0  0  0  0  0  0  0  0  0  0  0  0
    4.3706    0.4873   24.6260 C   0  0  0  0  0  0  0  0  0  0  0  0
    4.1468   -0.2710   25.8244 C   0  0  0  0  0  0  0  0  0  0  0  0
    3.1190   -0.3160   26.8391 C   0  0  0  0  0  0  0  0  0  0  0  0
    2.3904   -3.5018   28.3774 H   0  0  0  0  0  0  0  0  0  0  0  0
    1.4922   -2.5007   27.1054 H   0  0  0  0  0  0  0  0  0  0  0  0
    0.7302   -3.0697   28.5327 H   0  0  0  0  0  0  0  0  0  0  0  0
   -0.0700   -2.2821   30.4621 H   0  0  0  0  0  0  0  0  0  0  0  0
    0.6299   -0.9234   31.3608 H   0  0  0  0  0  0  0  0  0  0  0  0
   -2.1236   -0.8985   29.9604 H   0  0  0  0  0  0  0  0  0  0  0  0
   -1.3919    0.4505   30.7904 H   0  0  0  0  0  0  0  0  0  0  0  0
   -1.8407   -1.1156   34.3153 H   0  0  0  0  0  0  0  0  0  0  0  0
   -0.4839   -1.6579   33.3259 H   0  0  0  0  0  0  0  0  0  0  0  0
   -0.8706    0.0687   33.4352 H   0  0  0  0  0  0  0  0  0  0  0  0
   -3.2389   -2.8102   33.0478 H   0  0  0  0  0  0  0  0  0  0  0  0
   -2.0358   -3.2055   31.8193 H   0  0  0  0  0  0  0  0  0  0  0  0
   -3.6089   -2.5550   31.3375 H   0  0  0  0  0  0  0  0  0  0  0  0
    4.4642   -2.6702   28.8566 H   0  0  0  0  0  0  0  0  0  0  0  0
    6.2547   -2.6150   27.1546 H   0  0  0  0  0  0  0  0  0  0  0  0
    6.9699   -1.3476   24.7451 H   0  0  0  0  0  0  0  0  0  0  0  0
    6.0725    0.4013   23.1618 H   0  0  0  0  0  0  0  0  0  0  0  0
    3.7143    1.2506   24.2291 H   0  0  0  0  0  0  0  0  0  0  0  0
    2.2891    0.3815   26.7823 H   0  0  0  0  0  0  0  0  0  0  0  0
  1  2  1  0
  2  3  1  0
  3  4  2  0
  3  5  1  0
  5  6  1  0
  6  7  1  0
  7  8  1  0
  7  9  1  0
  7 10  1  0
 10 11  2  0
 10 12  1  0
  2 13  1  0
 13 14  2  0
 14 15  1  0
 15 16  2  0
 16 17  1  0
 17 18  1  0
 18 19  2  0
 19 20  1  0
 20 21  2  0
 21 13  1  0
 20 16  1  0
  1 22  1  0
  1 23  1  0
  1 24  1  0
  5 25  1  0
  5 26  1  0
  6 27  1  0
  6 28  1  0
  8 29  1  0
  8 30  1  0
  8 31  1  0
  9 32  1  0
  9 33  1  0
  9 34  1  0
 14 35  1  0
 15 36  1  0
 17 37  1  0
 18 38  1  0
 19 39  1  0
 21 40  1  0
M  CHG  2  10   1  12  -1
M  END
>  <Energy>  (1270) 
112.05400980678618

>  <compound_id>  (1270) 
64804

>  <target_id>  (1270) 
1

>  <reference_id>  (1270) 
7

>  <inspiration_ids>  (1270) 
[97, 7]

>  <energy_score>  (1270) 
36.15870389307963

>  <distance_score>  (1270) 
13.534241097409742

>  <path>  (1270) 
/opt/xchem-fragalysis-2/maxwin/BulkDock/SCRATCH/511024/C64804-P7/C64804-P7.minimised.mol

>  <scratch_subdir>  (1270) 
/opt/xchem-fragalysis-2/maxwin/BulkDock/SCRATCH/511024/C64804-P7

>  <fragmenstein_runtime>  (1270) 
10.810100793838501

>  <fragmenstein_outcome>  (1270) 
too moved

>  <fragmenstein_mode>  (1270) 
expansion

>  <fragmenstein_error>  (1270) 


$$$$
C64805-P97
     RDKit          3D

 34 35  0  0  0  0  0  0  0  0999 V2000
   -1.4695   -2.5550   30.4590 C   0  0  0  0  0  0  0  0  0  0  0  0
   -0.6599   -3.7233   29.8782 C   0  0  0  0  0  0  0  0  0  0  0  0
   -0.2214   -4.6752   30.9896 C   0  0  0  0  0  0  0  0  0  0  0  0
    0.5420   -3.2960   29.0776 C   0  0  0  0  0  0  0  0  0  0  0  0
    1.4904   -2.9581   28.3893 C   0  0  0  0  0  0  0  0  0  0  0  0
    2.5093   -2.2374   27.5411 C   0  0  0  0  0  0  0  0  0  0  0  0
    2.0072   -1.4997   26.7433 O   0  0  0  0  0  0  0  0  0  0  0  0
    3.8817   -2.4526   27.8663 N   0  0  0  0  0  0  0  0  0  0  0  0
    5.1334   -1.7439   27.3910 C   0  0  0  0  0  0  0  0  0  0  0  0
    4.5207   -3.6409   26.9522 C   0  0  0  0  0  0  0  0  0  0  0  0
    5.9042   -4.7025   27.8530 C   0  0  0  0  0  0  0  0  0  0  0  0
    6.8444   -6.2822   27.2365 C   0  0  0  0  0  0  0  0  0  0  0  0
    6.2625   -7.2229   25.5678 C   0  0  0  0  0  0  0  0  0  0  0  0
    7.4923   -7.9128   24.7226 C   0  0  0  0  0  0  0  0  0  0  0  0
    7.7219   -7.1064   23.5945 C   0  0  0  0  0  0  0  0  0  0  0  0
    6.7564   -6.0740   23.3480 N   0  0  0  0  0  0  0  0  0  0  0  0
    5.5616   -5.9005   24.3133 C   0  0  0  0  0  0  0  0  0  0  0  0
    4.4039   -4.4115   25.0830 C   0  0  0  0  0  0  0  0  0  0  0  0
   -2.3377   -2.9166   31.0187 H   0  0  0  0  0  0  0  0  0  0  0  0
   -0.8551   -1.9476   31.1327 H   0  0  0  0  0  0  0  0  0  0  0  0
   -1.8275   -1.9002   29.6571 H   0  0  0  0  0  0  0  0  0  0  0  0
   -1.3061   -4.2761   29.1907 H   0  0  0  0  0  0  0  0  0  0  0  0
    0.4490   -4.1783   31.7001 H   0  0  0  0  0  0  0  0  0  0  0  0
    0.3143   -5.5375   30.5769 H   0  0  0  0  0  0  0  0  0  0  0  0
   -1.0867   -5.0528   31.5446 H   0  0  0  0  0  0  0  0  0  0  0  0
    6.0766   -2.1279   27.7974 H   0  0  0  0  0  0  0  0  0  0  0  0
    5.1128   -1.4818   26.3227 H   0  0  0  0  0  0  0  0  0  0  0  0
    5.0404   -0.7566   27.8685 H   0  0  0  0  0  0  0  0  0  0  0  0
    6.1828   -4.3436   28.8512 H   0  0  0  0  0  0  0  0  0  0  0  0
    7.5903   -6.8007   27.8382 H   0  0  0  0  0  0  0  0  0  0  0  0
    8.1783   -8.6305   25.1608 H   0  0  0  0  0  0  0  0  0  0  0  0
    8.5566   -7.1356   22.9036 H   0  0  0  0  0  0  0  0  0  0  0  0
    7.0874   -5.2605   22.8632 H   0  0  0  0  0  0  0  0  0  0  0  0
    4.0643   -3.4859   24.5436 H   0  0  0  0  0  0  0  0  0  0  0  0
  1  2  1  0
  2  3  1  0
  2  4  1  0
  4  5  3  0
  5  6  1  0
  6  7  2  0
  6  8  1  0
  8  9  1  0
  8 10  1  0
 10 11  2  0
 11 12  1  0
 12 13  2  0
 13 14  1  0
 14 15  2  0
 15 16  1  0
 16 17  1  0
 17 18  2  0
 18 10  1  0
 17 13  1  0
  1 19  1  0
  1 20  1  0
  1 21  1  0
  2 22  1  0
  3 23  1  0
  3 24  1  0
  3 25  1  0
  9 26  1  0
  9 27  1  0
  9 28  1  0
 11 29  1  0
 12 30  1  0
 14 31  1  0
 15 32  1  0
 16 33  1  0
 18 34  1  0
M  END
>  <Energy>  (1271) 
794.77150876610267

>  <compound_id>  (1271) 
64805

>  <target_id>  (1271) 
1

>  <reference_id>  (1271) 
97

>  <inspiration_ids>  (1271) 
[97, 7]

>  <energy_score>  (1271) 
741.1458445379828

>  <distance_score>  (1271) 
14.11151422297535

>  <path>  (1271) 
/opt/xchem-fragalysis-2/maxwin/BulkDock/SCRATCH/511024/C64805-P97/C64805-P97.minimised.mol

>  <scratch_subdir>  (1271) 
/opt/xchem-fragalysis-2/maxwin/BulkDock/SCRATCH/511024/C64805-P97

>  <fragmenstein_runtime>  (1271) 
7.74695086479187

>  <fragmenstein_outcome>  (1271) 
too moved

>  <fragmenstein_mode>  (1271) 
expansion

>  <fragmenstein_error>  (1271) 


$$$$
C64805-P7
     RDKit          3D

 34 35  0  0  0  0  0  0  0  0999 V2000
   -2.2739   -7.7371   25.7806 C   0  0  0  0  0  0  0  0  0  0  0  0
   -2.7921   -8.6024   24.6294 C   0  0  0  0  0  0  0  0  0  0  0  0
   -3.1583   -9.9979   25.1362 C   0  0  0  0  0  0  0  0  0  0  0  0
   -1.8454   -8.7270   23.4480 C   0  0  0  0  0  0  0  0  0  0  0  0
   -1.3203   -8.8504   22.3471 C   0  0  0  0  0  0  0  0  0  0  0  0
   -1.2946   -9.0289   20.8369 C   0  0  0  0  0  0  0  0  0  0  0  0
   -2.2512   -8.4880   20.3426 O   0  0  0  0  0  0  0  0  0  0  0  0
   -0.2697   -9.8523   20.2337 N   0  0  0  0  0  0  0  0  0  0  0  0
   -0.1326  -10.3928   18.8019 C   0  0  0  0  0  0  0  0  0  0  0  0
    1.0076   -8.9337   19.7264 C   0  0  0  0  0  0  0  0  0  0  0  0
    2.2709   -9.5684   19.5220 C   0  0  0  0  0  0  0  0  0  0  0  0
    3.3082   -9.0106   18.7230 C   0  0  0  0  0  0  0  0  0  0  0  0
    3.1595   -7.7097   18.1998 C   0  0  0  0  0  0  0  0  0  0  0  0
    3.9933   -6.8370   17.4347 C   0  0  0  0  0  0  0  0  0  0  0  0
    3.3238   -5.6433   17.3012 C   0  0  0  0  0  0  0  0  0  0  0  0
    2.1187   -5.7628   17.9484 N   0  0  0  0  0  0  0  0  0  0  0  0
    1.9792   -7.0219   18.5049 C   0  0  0  0  0  0  0  0  0  0  0  0
    0.8958   -7.6020   19.2492 C   0  0  0  0  0  0  0  0  0  0  0  0
   -1.3352   -8.1353   26.1806 H   0  0  0  0  0  0  0  0  0  0  0  0
   -3.0008   -7.7033   26.5958 H   0  0  0  0  0  0  0  0  0  0  0  0
   -2.0739   -6.7184   25.4351 H   0  0  0  0  0  0  0  0  0  0  0  0
   -3.7105   -8.1330   24.2526 H   0  0  0  0  0  0  0  0  0  0  0  0
   -2.2838  -10.5231   25.5346 H   0  0  0  0  0  0  0  0  0  0  0  0
   -3.5749  -10.6119   24.3297 H   0  0  0  0  0  0  0  0  0  0  0  0
   -3.9082   -9.9386   25.9323 H   0  0  0  0  0  0  0  0  0  0  0  0
   -1.0511  -10.9895   18.6936 H   0  0  0  0  0  0  0  0  0  0  0  0
   -0.2473   -9.6524   17.9964 H   0  0  0  0  0  0  0  0  0  0  0  0
    0.6636  -11.1349   18.6765 H   0  0  0  0  0  0  0  0  0  0  0  0
    2.4270  -10.5650   19.9374 H   0  0  0  0  0  0  0  0  0  0  0  0
    4.2226   -9.5739   18.5604 H   0  0  0  0  0  0  0  0  0  0  0  0
    4.9758   -7.0612   17.0442 H   0  0  0  0  0  0  0  0  0  0  0  0
    3.5860   -4.7169   16.8106 H   0  0  0  0  0  0  0  0  0  0  0  0
    1.4237   -5.0330   18.0249 H   0  0  0  0  0  0  0  0  0  0  0  0
   -0.0319   -7.0490   19.3551 H   0  0  0  0  0  0  0  0  0  0  0  0
  1  2  1  0
  2  3  1  0
  2  4  1  0
  4  5  3  0
  5  6  1  0
  6  7  2  0
  6  8  1  0
  8  9  1  0
  8 10  1  0
 10 11  2  0
 11 12  1  0
 12 13  2  0
 13 14  1  0
 14 15  2  0
 15 16  1  0
 16 17  1  0
 17 18  2  0
 18 10  1  0
 17 13  1  0
  1 19  1  0
  1 20  1  0
  1 21  1  0
  2 22  1  0
  3 23  1  0
  3 24  1  0
  3 25  1  0
  9 26  1  0
  9 27  1  0
  9 28  1  0
 11 29  1  0
 12 30  1  0
 14 31  1  0
 15 32  1  0
 16 33  1  0
 18 34  1  0
M  END
>  <Energy>  (1272) 
110.27557273189404

>  <compound_id>  (1272) 
64805

>  <target_id>  (1272) 
1

>  <reference_id>  (1272) 
7

>  <inspiration_ids>  (1272) 
[97, 7]

>  <energy_score>  (1272) 
56.64990850377501

>  <distance_score>  (1272) 
15.109135066187571

>  <path>  (1272) 
/opt/xchem-fragalysis-2/maxwin/BulkDock/SCRATCH/511024/C64805-P7/C64805-P7.minimised.mol

>  <scratch_subdir>  (1272) 
/opt/xchem-fragalysis-2/maxwin/BulkDock/SCRATCH/511024/C64805-P7

>  <fragmenstein_runtime>  (1272) 
7.884929895401001

>  <fragmenstein_outcome>  (1272) 
too moved

>  <fragmenstein_mode>  (1272) 
expansion

>  <fragmenstein_error>  (1272) 


$$$$
C64810-P97
     RDKit          3D

 44 45  0  0  0  0  0  0  0  0999 V2000
   -2.2119    0.3003   30.6457 C   0  0  0  0  0  0  0  0  0  0  0  0
   -1.1995   -0.0476   29.5141 C   0  0  0  0  0  0  0  0  0  0  0  0
   -1.9530   -0.5178   28.2837 C   0  0  0  0  0  0  0  0  0  0  0  0
   -0.0265   -1.0186   29.9209 C   0  0  0  0  0  0  0  0  0  0  0  0
    1.5506   -0.5524   29.7584 C   0  0  0  0  0  0  0  0  0  0  0  0
    2.2268   -1.0173   30.6564 O   0  0  0  0  0  0  0  0  0  0  0  0
    1.9036    0.3833   28.7039 N   0  0  0  0  0  0  0  0  0  0  0  0
    3.2017    1.1682   28.4516 C   0  0  0  0  0  0  0  0  0  0  0  0
    2.4454   -0.4223   27.3404 C   0  0  0  0  0  0  0  0  0  0  0  0
    3.2379   -1.5843   27.4475 C   0  0  0  0  0  0  0  0  0  0  0  0
    4.1258   -2.0033   26.4098 C   0  0  0  0  0  0  0  0  0  0  0  0
    4.2061   -1.2713   25.2152 C   0  0  0  0  0  0  0  0  0  0  0  0
    4.9798   -1.4584   24.0848 N   0  0  0  0  0  0  0  0  0  0  0  0
    4.7442   -0.4591   23.1761 C   0  0  0  0  0  0  0  0  0  0  0  0
    3.7739    0.3614   23.7157 C   0  0  0  0  0  0  0  0  0  0  0  0
    3.4119   -0.1485   25.0076 C   0  0  0  0  0  0  0  0  0  0  0  0
    2.5093    0.2474   26.0585 C   0  0  0  0  0  0  0  0  0  0  0  0
   -0.3423   -2.5394   30.1677 C   0  0  0  0  0  0  0  0  0  0  0  0
   -1.6270   -2.8515   30.9747 C   0  0  0  0  0  0  0  0  0  0  0  0
   -0.2751   -3.3496   28.8764 C   0  0  0  0  0  0  0  0  0  0  0  0
   -2.8422   -0.5411   30.9301 H   0  0  0  0  0  0  0  0  0  0  0  0
   -1.6874    0.6579   31.5376 H   0  0  0  0  0  0  0  0  0  0  0  0
   -2.8753    1.1066   30.3131 H   0  0  0  0  0  0  0  0  0  0  0  0
   -0.7265    0.9071   29.2472 H   0  0  0  0  0  0  0  0  0  0  0  0
   -2.6405    0.2539   27.9302 H   0  0  0  0  0  0  0  0  0  0  0  0
   -2.5167   -1.4344   28.4537 H   0  0  0  0  0  0  0  0  0  0  0  0
   -1.2461   -0.7043   27.4701 H   0  0  0  0  0  0  0  0  0  0  0  0
   -0.0280   -0.7231   30.9924 H   0  0  0  0  0  0  0  0  0  0  0  0
    3.1204    1.9223   27.6613 H   0  0  0  0  0  0  0  0  0  0  0  0
    3.2796    1.7753   29.3665 H   0  0  0  0  0  0  0  0  0  0  0  0
    4.1337    0.5871   28.4898 H   0  0  0  0  0  0  0  0  0  0  0  0
    3.2775   -2.1240   28.3923 H   0  0  0  0  0  0  0  0  0  0  0  0
    4.7743   -2.8572   26.5717 H   0  0  0  0  0  0  0  0  0  0  0  0
    5.6114   -2.2360   23.9569 H   0  0  0  0  0  0  0  0  0  0  0  0
    5.2555   -0.4341   22.2248 H   0  0  0  0  0  0  0  0  0  0  0  0
    3.3512    1.2351   23.2377 H   0  0  0  0  0  0  0  0  0  0  0  0
    1.9199    1.1499   25.9102 H   0  0  0  0  0  0  0  0  0  0  0  0
    0.4837   -2.9211   30.7854 H   0  0  0  0  0  0  0  0  0  0  0  0
   -1.6454   -3.9139   31.2399 H   0  0  0  0  0  0  0  0  0  0  0  0
   -2.5278   -2.6383   30.3982 H   0  0  0  0  0  0  0  0  0  0  0  0
   -1.6480   -2.2846   31.9101 H   0  0  0  0  0  0  0  0  0  0  0  0
   -1.0924   -3.1087   28.1984 H   0  0  0  0  0  0  0  0  0  0  0  0
    0.6671   -3.1695   28.3500 H   0  0  0  0  0  0  0  0  0  0  0  0
   -0.3319   -4.4221   29.0918 H   0  0  0  0  0  0  0  0  0  0  0  0
  1  2  1  0
  2  3  1  0
  2  4  1  0
  4  5  1  0
  5  6  2  0
  5  7  1  0
  7  8  1  0
  7  9  1  0
  9 10  2  0
 10 11  1  0
 11 12  2  0
 12 13  1  0
 13 14  1  0
 14 15  2  0
 15 16  1  0
 16 17  2  0
  4 18  1  0
 18 19  1  0
 18 20  1  0
 17  9  1  0
 16 12  1  0
  1 21  1  0
  1 22  1  0
  1 23  1  0
  2 24  1  0
  3 25  1  0
  3 26  1  0
  3 27  1  0
  4 28  1  0
  8 29  1  0
  8 30  1  0
  8 31  1  0
 10 32  1  0
 11 33  1  0
 13 34  1  0
 14 35  1  0
 15 36  1  0
 17 37  1  0
 18 38  1  0
 19 39  1  0
 19 40  1  0
 19 41  1  0
 20 42  1  0
 20 43  1  0
 20 44  1  0
M  END
>  <Energy>  (1273) 
140.72307669458277

>  <compound_id>  (1273) 
64810

>  <target_id>  (1273) 
1

>  <reference_id>  (1273) 
97

>  <inspiration_ids>  (1273) 
[97, 7]

>  <energy_score>  (1273) 
54.95932308128522

>  <distance_score>  (1273) 
13.878573371345743

>  <path>  (1273) 
/opt/xchem-fragalysis-2/maxwin/BulkDock/SCRATCH/511024/C64810-P97/C64810-P97.minimised.mol

>  <scratch_subdir>  (1273) 
/opt/xchem-fragalysis-2/maxwin/BulkDock/SCRATCH/511024/C64810-P97

>  <fragmenstein_runtime>  (1273) 
14.231003999710083

>  <fragmenstein_outcome>  (1273) 
too moved

>  <fragmenstein_mode>  (1273) 
expansion

>  <fragmenstein_error>  (1273) 


$$$$
C64810-P7
     RDKit          3D

 44 45  0  0  0  0  0  0  0  0999 V2000
   -1.8071    0.1796   30.4115 C   0  0  0  0  0  0  0  0  0  0  0  0
   -1.1165   -0.5358   29.2262 C   0  0  0  0  0  0  0  0  0  0  0  0
   -2.1094   -1.4006   28.4708 C   0  0  0  0  0  0  0  0  0  0  0  0
    0.2028   -1.3740   29.5005 C   0  0  0  0  0  0  0  0  0  0  0  0
    1.5108   -0.4210   29.4153 C   0  0  0  0  0  0  0  0  0  0  0  0
    1.3238    0.7219   29.7729 O   0  0  0  0  0  0  0  0  0  0  0  0
    2.7468   -1.1002   29.0185 N   0  0  0  0  0  0  0  0  0  0  0  0
    4.2040   -0.6170   29.0371 C   0  0  0  0  0  0  0  0  0  0  0  0
    3.0014   -0.9659   27.3816 C   0  0  0  0  0  0  0  0  0  0  0  0
    2.5116    0.1078   26.6260 C   0  0  0  0  0  0  0  0  0  0  0  0
    2.9393    0.3580   25.2884 C   0  0  0  0  0  0  0  0  0  0  0  0
    3.8617   -0.5054   24.6746 C   0  0  0  0  0  0  0  0  0  0  0  0
    4.4018   -0.4978   23.4034 N   0  0  0  0  0  0  0  0  0  0  0  0
    5.2287   -1.5770   23.2342 C   0  0  0  0  0  0  0  0  0  0  0  0
    5.2487   -2.2733   24.4258 C   0  0  0  0  0  0  0  0  0  0  0  0
    4.3623   -1.6186   25.3426 C   0  0  0  0  0  0  0  0  0  0  0  0
    3.9110   -1.8509   26.6858 C   0  0  0  0  0  0  0  0  0  0  0  0
    0.0822   -2.1064   30.9242 C   0  0  0  0  0  0  0  0  0  0  0  0
   -1.1565   -3.0114   31.1578 C   0  0  0  0  0  0  0  0  0  0  0  0
    1.3304   -2.9693   31.1794 C   0  0  0  0  0  0  0  0  0  0  0  0
   -2.5354    0.9032   30.0287 H   0  0  0  0  0  0  0  0  0  0  0  0
   -1.0762    0.7388   31.0033 H   0  0  0  0  0  0  0  0  0  0  0  0
   -2.3502   -0.4886   31.0782 H   0  0  0  0  0  0  0  0  0  0  0  0
   -0.8280    0.2589   28.5233 H   0  0  0  0  0  0  0  0  0  0  0  0
   -2.5568   -2.1745   29.0893 H   0  0  0  0  0  0  0  0  0  0  0  0
   -2.8771   -0.7861   28.0028 H   0  0  0  0  0  0  0  0  0  0  0  0
   -1.5968   -1.9142   27.6596 H   0  0  0  0  0  0  0  0  0  0  0  0
    0.3356   -2.1332   28.7187 H   0  0  0  0  0  0  0  0  0  0  0  0
    4.3915    0.3554   28.5584 H   0  0  0  0  0  0  0  0  0  0  0  0
    4.9357   -1.4086   28.8442 H   0  0  0  0  0  0  0  0  0  0  0  0
    4.3562   -0.3830   30.1016 H   0  0  0  0  0  0  0  0  0  0  0  0
    1.8306    0.8263   27.0786 H   0  0  0  0  0  0  0  0  0  0  0  0
    2.5424    1.2175   24.7551 H   0  0  0  0  0  0  0  0  0  0  0  0
    4.1642    0.1763   22.6895 H   0  0  0  0  0  0  0  0  0  0  0  0
    5.6967   -1.7682   22.2787 H   0  0  0  0  0  0  0  0  0  0  0  0
    5.7946   -3.1878   24.6119 H   0  0  0  0  0  0  0  0  0  0  0  0
    4.3073   -2.7137   27.2092 H   0  0  0  0  0  0  0  0  0  0  0  0
    0.0773   -1.3325   31.7026 H   0  0  0  0  0  0  0  0  0  0  0  0
   -2.0995   -2.4712   31.1906 H   0  0  0  0  0  0  0  0  0  0  0  0
   -1.2113   -3.7656   30.3685 H   0  0  0  0  0  0  0  0  0  0  0  0
   -1.0727   -3.5375   32.1156 H   0  0  0  0  0  0  0  0  0  0  0  0
    1.2391   -3.5271   32.1181 H   0  0  0  0  0  0  0  0  0  0  0  0
    1.4834   -3.6922   30.3710 H   0  0  0  0  0  0  0  0  0  0  0  0
    2.2291   -2.3537   31.2727 H   0  0  0  0  0  0  0  0  0  0  0  0
  1  2  1  0
  2  3  1  0
  2  4  1  0
  4  5  1  0
  5  6  2  0
  5  7  1  0
  7  8  1  0
  7  9  1  0
  9 10  2  0
 10 11  1  0
 11 12  2  0
 12 13  1  0
 13 14  1  0
 14 15  2  0
 15 16  1  0
 16 17  2  0
  4 18  1  0
 18 19  1  0
 18 20  1  0
 17  9  1  0
 16 12  1  0
  1 21  1  0
  1 22  1  0
  1 23  1  0
  2 24  1  0
  3 25  1  0
  3 26  1  0
  3 27  1  0
  4 28  1  0
  8 29  1  0
  8 30  1  0
  8 31  1  0
 10 32  1  0
 11 33  1  0
 13 34  1  0
 14 35  1  0
 15 36  1  0
 17 37  1  0
 18 38  1  0
 19 39  1  0
 19 40  1  0
 19 41  1  0
 20 42  1  0
 20 43  1  0
 20 44  1  0
M  END
>  <Energy>  (1274) 
119.06765746862293

>  <compound_id>  (1274) 
64810

>  <target_id>  (1274) 
1

>  <reference_id>  (1274) 
7

>  <inspiration_ids>  (1274) 
[97, 7]

>  <energy_score>  (1274) 
33.30390385532223

>  <distance_score>  (1274) 
13.81544812483762

>  <path>  (1274) 
/opt/xchem-fragalysis-2/maxwin/BulkDock/SCRATCH/511024/C64810-P7/C64810-P7.minimised.mol

>  <scratch_subdir>  (1274) 
/opt/xchem-fragalysis-2/maxwin/BulkDock/SCRATCH/511024/C64810-P7

>  <fragmenstein_runtime>  (1274) 
11.327818870544434

>  <fragmenstein_outcome>  (1274) 
too moved

>  <fragmenstein_mode>  (1274) 
expansion

>  <fragmenstein_error>  (1274) 


$$$$
C64814-P97
     RDKit          3D

 31 32  0  0  0  0  0  0  0  0999 V2000
   -4.7730   -2.3535   31.8107 C   0  0  0  0  0  0  0  0  0  0  0  0
   -3.3432   -2.2324   31.2586 C   0  0  0  0  0  0  0  0  0  0  0  0
   -3.1230   -0.9710   30.4081 C   0  0  0  0  0  0  0  0  0  0  0  0
   -4.1128   -0.3100   30.0596 O   0  0  0  0  0  0  0  0  0  0  0  0
   -1.6481   -0.4564   30.0780 C   0  0  0  0  0  0  0  0  0  0  0  0
   -0.9870   -0.1214   31.4093 C   0  0  0  0  0  0  0  0  0  0  0  0
   -0.5929   -1.5918   28.9955 S   0  0  0  0  0  0  0  0  0  0  0  0
    0.8988   -0.8761   28.2383 C   0  0  0  0  0  0  0  0  0  0  0  0
    1.6618    0.2813   28.3232 C   0  0  0  0  0  0  0  0  0  0  0  0
    2.7924    0.1919   27.4067 C   0  0  0  0  0  0  0  0  0  0  0  0
    3.8700    1.0373   27.0303 C   0  0  0  0  0  0  0  0  0  0  0  0
    4.7616    0.6559   26.0098 C   0  0  0  0  0  0  0  0  0  0  0  0
    4.5953   -0.5551   25.3552 C   0  0  0  0  0  0  0  0  0  0  0  0
    3.5656   -1.4264   25.7336 C   0  0  0  0  0  0  0  0  0  0  0  0
    2.6904   -1.0359   26.7685 C   0  0  0  0  0  0  0  0  0  0  0  0
    1.5755   -1.6625   27.3077 N   0  0  0  0  0  0  0  0  0  0  0  0
   -5.5008   -2.4153   30.9952 H   0  0  0  0  0  0  0  0  0  0  0  0
   -5.0264   -1.4842   32.4260 H   0  0  0  0  0  0  0  0  0  0  0  0
   -4.8655   -3.2537   32.4257 H   0  0  0  0  0  0  0  0  0  0  0  0
   -3.1123   -3.1023   30.6356 H   0  0  0  0  0  0  0  0  0  0  0  0
   -2.6509   -2.2145   32.1042 H   0  0  0  0  0  0  0  0  0  0  0  0
   -1.7737    0.4655   29.4980 H   0  0  0  0  0  0  0  0  0  0  0  0
   -1.6492    0.4844   32.0376 H   0  0  0  0  0  0  0  0  0  0  0  0
   -0.7242   -1.0218   31.9741 H   0  0  0  0  0  0  0  0  0  0  0  0
   -0.0670    0.4513   31.2505 H   0  0  0  0  0  0  0  0  0  0  0  0
    1.4478    1.1249   28.9649 H   0  0  0  0  0  0  0  0  0  0  0  0
    3.9838    2.0067   27.5077 H   0  0  0  0  0  0  0  0  0  0  0  0
    5.5504    1.3370   25.7026 H   0  0  0  0  0  0  0  0  0  0  0  0
    5.2271   -0.8035   24.5064 H   0  0  0  0  0  0  0  0  0  0  0  0
    3.4033   -2.3517   25.1888 H   0  0  0  0  0  0  0  0  0  0  0  0
    1.2337   -2.5507   26.9823 H   0  0  0  0  0  0  0  0  0  0  0  0
  1  2  1  0
  2  3  1  0
  3  4  2  0
  3  5  1  0
  5  6  1  0
  5  7  1  0
  7  8  1  0
  8  9  2  0
  9 10  1  0
 10 11  2  0
 11 12  1  0
 12 13  2  0
 13 14  1  0
 14 15  2  0
 15 16  1  0
 16  8  1  0
 15 10  1  0
  1 17  1  0
  1 18  1  0
  1 19  1  0
  2 20  1  0
  2 21  1  0
  5 22  1  0
  6 23  1  0
  6 24  1  0
  6 25  1  0
  9 26  1  0
 11 27  1  0
 12 28  1  0
 13 29  1  0
 14 30  1  0
 16 31  1  0
M  END
>  <Energy>  (1275) 
50.60271701514921

>  <compound_id>  (1275) 
64814

>  <target_id>  (1275) 
1

>  <reference_id>  (1275) 
97

>  <inspiration_ids>  (1275) 
[97, 7]

>  <energy_score>  (1275) 
1.0722558249884457

>  <distance_score>  (1275) 
14.031245297671896

>  <path>  (1275) 
/opt/xchem-fragalysis-2/maxwin/BulkDock/SCRATCH/511024/C64814-P97/C64814-P97.minimised.mol

>  <scratch_subdir>  (1275) 
/opt/xchem-fragalysis-2/maxwin/BulkDock/SCRATCH/511024/C64814-P97

>  <fragmenstein_runtime>  (1275) 
8.919187068939209

>  <fragmenstein_outcome>  (1275) 
too moved

>  <fragmenstein_mode>  (1275) 
expansion

>  <fragmenstein_error>  (1275) 


$$$$
C64814-P7
     RDKit          3D

 31 32  0  0  0  0  0  0  0  0999 V2000
   -4.9861   -1.7865   31.5212 C   0  0  0  0  0  0  0  0  0  0  0  0
   -4.0541   -1.2621   30.4222 C   0  0  0  0  0  0  0  0  0  0  0  0
   -2.5599   -1.5827   30.6490 C   0  0  0  0  0  0  0  0  0  0  0  0
   -2.2529   -2.3594   31.5564 O   0  0  0  0  0  0  0  0  0  0  0  0
   -1.4941   -0.7882   29.7479 C   0  0  0  0  0  0  0  0  0  0  0  0
   -1.1642    0.4675   30.5443 C   0  0  0  0  0  0  0  0  0  0  0  0
    0.0591   -1.8038   29.2952 S   0  0  0  0  0  0  0  0  0  0  0  0
    1.3259   -1.0739   28.2107 C   0  0  0  0  0  0  0  0  0  0  0  0
    2.0410    0.1164   28.1266 C   0  0  0  0  0  0  0  0  0  0  0  0
    3.1575   -0.0456   27.2009 C   0  0  0  0  0  0  0  0  0  0  0  0
    4.2303    0.7646   26.7410 C   0  0  0  0  0  0  0  0  0  0  0  0
    5.1628    0.2648   25.8098 C   0  0  0  0  0  0  0  0  0  0  0  0
    5.0366   -1.0253   25.3132 C   0  0  0  0  0  0  0  0  0  0  0  0
    3.9834   -1.8392   25.7428 C   0  0  0  0  0  0  0  0  0  0  0  0
    3.0783   -1.3398   26.7056 C   0  0  0  0  0  0  0  0  0  0  0  0
    1.9817   -1.9264   27.3247 N   0  0  0  0  0  0  0  0  0  0  0  0
   -6.0268   -1.5457   31.2857 H   0  0  0  0  0  0  0  0  0  0  0  0
   -4.8914   -2.8716   31.6219 H   0  0  0  0  0  0  0  0  0  0  0  0
   -4.7344   -1.3368   32.4870 H   0  0  0  0  0  0  0  0  0  0  0  0
   -4.1621   -0.1748   30.3572 H   0  0  0  0  0  0  0  0  0  0  0  0
   -4.3387   -1.6979   29.4587 H   0  0  0  0  0  0  0  0  0  0  0  0
   -1.9802   -0.5376   28.7996 H   0  0  0  0  0  0  0  0  0  0  0  0
   -0.6801    0.2221   31.4962 H   0  0  0  0  0  0  0  0  0  0  0  0
   -0.4970    1.1261   29.9792 H   0  0  0  0  0  0  0  0  0  0  0  0
   -2.0695    1.0386   30.7769 H   0  0  0  0  0  0  0  0  0  0  0  0
    1.8529    1.0005   28.7198 H   0  0  0  0  0  0  0  0  0  0  0  0
    4.3304    1.7822   27.1072 H   0  0  0  0  0  0  0  0  0  0  0  0
    5.9648    0.9062   25.4565 H   0  0  0  0  0  0  0  0  0  0  0  0
    5.7232   -1.3871   24.5544 H   0  0  0  0  0  0  0  0  0  0  0  0
    3.8417   -2.8188   25.3057 H   0  0  0  0  0  0  0  0  0  0  0  0
    1.6824   -2.8687   27.1407 H   0  0  0  0  0  0  0  0  0  0  0  0
  1  2  1  0
  2  3  1  0
  3  4  2  0
  3  5  1  0
  5  6  1  0
  5  7  1  0
  7  8  1  0
  8  9  2  0
  9 10  1  0
 10 11  2  0
 11 12  1  0
 12 13  2  0
 13 14  1  0
 14 15  2  0
 15 16  1  0
 16  8  1  0
 15 10  1  0
  1 17  1  0
  1 18  1  0
  1 19  1  0
  2 20  1  0
  2 21  1  0
  5 22  1  0
  6 23  1  0
  6 24  1  0
  6 25  1  0
  9 26  1  0
 11 27  1  0
 12 28  1  0
 13 29  1  0
 14 30  1  0
 16 31  1  0
M  END
>  <Energy>  (1276) 
55.346208369704215

>  <compound_id>  (1276) 
64814

>  <target_id>  (1276) 
1

>  <reference_id>  (1276) 
7

>  <inspiration_ids>  (1276) 
[97, 7]

>  <energy_score>  (1276) 
5.815747179543564

>  <distance_score>  (1276) 
13.795238583007796

>  <path>  (1276) 
/opt/xchem-fragalysis-2/maxwin/BulkDock/SCRATCH/511024/C64814-P7/C64814-P7.minimised.mol

>  <scratch_subdir>  (1276) 
/opt/xchem-fragalysis-2/maxwin/BulkDock/SCRATCH/511024/C64814-P7

>  <fragmenstein_runtime>  (1276) 
6.010974407196045

>  <fragmenstein_outcome>  (1276) 
too moved

>  <fragmenstein_mode>  (1276) 
expansion

>  <fragmenstein_error>  (1276) 


$$$$
C64815-P97
     RDKit          3D

 45 46  0  0  0  0  0  0  0  0999 V2000
  -12.2513   -3.6336   28.6806 C   0  0  0  0  0  0  0  0  0  0  0  0
  -11.3960   -2.7655   27.3445 S   0  0  0  0  0  0  0  0  0  0  0  0
   -9.7067   -3.4250   27.5563 C   0  0  0  0  0  0  0  0  0  0  0  0
   -8.6781   -2.4089   27.0412 C   0  0  0  0  0  0  0  0  0  0  0  0
   -7.2387   -2.8753   27.2952 C   0  0  0  0  0  0  0  0  0  0  0  0
   -6.1382   -1.9950   26.6398 C   0  0  0  0  0  0  0  0  0  0  0  0
   -6.0078   -2.0557   25.0752 C   0  0  0  0  0  0  0  0  0  0  0  0
   -4.5300   -1.8410   24.4608 C   0  0  0  0  0  0  0  0  0  0  0  0
   -4.4254   -1.4767   22.9149 C   0  0  0  0  0  0  0  0  0  0  0  0
   -4.8946   -0.4020   22.6119 O   0  0  0  0  0  0  0  0  0  0  0  0
   -3.8708   -2.5358   22.0784 N   0  0  0  0  0  0  0  0  0  0  0  0
   -3.8071   -2.6754   20.5482 C   0  0  0  0  0  0  0  0  0  0  0  0
   -2.2386   -2.3308   21.8609 C   0  0  0  0  0  0  0  0  0  0  0  0
   -1.4420   -3.5060   21.7809 C   0  0  0  0  0  0  0  0  0  0  0  0
   -0.0992   -3.5196   21.3220 C   0  0  0  0  0  0  0  0  0  0  0  0
    0.4782   -2.3105   20.9199 C   0  0  0  0  0  0  0  0  0  0  0  0
    1.7381   -2.0432   20.4168 N   0  0  0  0  0  0  0  0  0  0  0  0
    1.8636   -0.7077   20.1398 C   0  0  0  0  0  0  0  0  0  0  0  0
    0.6780   -0.1015   20.5044 C   0  0  0  0  0  0  0  0  0  0  0  0
   -0.2198   -1.1039   21.0081 C   0  0  0  0  0  0  0  0  0  0  0  0
   -1.5798   -1.1118   21.5108 C   0  0  0  0  0  0  0  0  0  0  0  0
  -12.0830   -4.7086   28.5892 H   0  0  0  0  0  0  0  0  0  0  0  0
  -13.3225   -3.4557   28.5670 H   0  0  0  0  0  0  0  0  0  0  0  0
  -11.9360   -3.2722   29.6589 H   0  0  0  0  0  0  0  0  0  0  0  0
   -9.5104   -3.6837   28.5929 H   0  0  0  0  0  0  0  0  0  0  0  0
   -9.6343   -4.3509   26.9754 H   0  0  0  0  0  0  0  0  0  0  0  0
   -8.8244   -1.4248   27.4984 H   0  0  0  0  0  0  0  0  0  0  0  0
   -8.8196   -2.2761   25.9609 H   0  0  0  0  0  0  0  0  0  0  0  0
   -7.0624   -2.8949   28.3779 H   0  0  0  0  0  0  0  0  0  0  0  0
   -7.1166   -3.9050   26.9380 H   0  0  0  0  0  0  0  0  0  0  0  0
   -5.1791   -2.2959   27.0704 H   0  0  0  0  0  0  0  0  0  0  0  0
   -6.2859   -0.9492   26.9357 H   0  0  0  0  0  0  0  0  0  0  0  0
   -6.3840   -3.0154   24.7048 H   0  0  0  0  0  0  0  0  0  0  0  0
   -6.6677   -1.2917   24.6462 H   0  0  0  0  0  0  0  0  0  0  0  0
   -4.0833   -0.9996   25.0012 H   0  0  0  0  0  0  0  0  0  0  0  0
   -3.9495   -2.7448   24.6448 H   0  0  0  0  0  0  0  0  0  0  0  0
   -3.3240   -3.5913   20.1874 H   0  0  0  0  0  0  0  0  0  0  0  0
   -4.8651   -2.8127   20.2810 H   0  0  0  0  0  0  0  0  0  0  0  0
   -3.5453   -1.7491   20.0195 H   0  0  0  0  0  0  0  0  0  0  0  0
   -1.8956   -4.4590   22.0508 H   0  0  0  0  0  0  0  0  0  0  0  0
    0.4544   -4.4525   21.2818 H   0  0  0  0  0  0  0  0  0  0  0  0
    2.4558   -2.7419   20.2855 H   0  0  0  0  0  0  0  0  0  0  0  0
    2.7784   -0.3050   19.7285 H   0  0  0  0  0  0  0  0  0  0  0  0
    0.4616    0.9555   20.4201 H   0  0  0  0  0  0  0  0  0  0  0  0
   -2.1344   -0.1765   21.5286 H   0  0  0  0  0  0  0  0  0  0  0  0
  1  2  1  0
  2  3  1  0
  3  4  1  0
  4  5  1  0
  5  6  1  0
  6  7  1  0
  7  8  1  0
  8  9  1  0
  9 10  2  0
  9 11  1  0
 11 12  1  0
 11 13  1  0
 13 14  2  0
 14 15  1  0
 15 16  2  0
 16 17  1  0
 17 18  1  0
 18 19  2  0
 19 20  1  0
 20 21  2  0
 21 13  1  0
 20 16  1  0
  1 22  1  0
  1 23  1  0
  1 24  1  0
  3 25  1  0
  3 26  1  0
  4 27  1  0
  4 28  1  0
  5 29  1  0
  5 30  1  0
  6 31  1  0
  6 32  1  0
  7 33  1  0
  7 34  1  0
  8 35  1  0
  8 36  1  0
 12 37  1  0
 12 38  1  0
 12 39  1  0
 14 40  1  0
 15 41  1  0
 17 42  1  0
 18 43  1  0
 19 44  1  0
 21 45  1  0
M  END
>  <Energy>  (1277) 
112.58271591905464

>  <compound_id>  (1277) 
64815

>  <target_id>  (1277) 
1

>  <reference_id>  (1277) 
97

>  <inspiration_ids>  (1277) 
[97, 7]

>  <energy_score>  (1277) 
45.18090167809643

>  <distance_score>  (1277) 
13.68143772649859

>  <path>  (1277) 
/opt/xchem-fragalysis-2/maxwin/BulkDock/SCRATCH/511024/C64815-P97/C64815-P97.minimised.mol

>  <scratch_subdir>  (1277) 
/opt/xchem-fragalysis-2/maxwin/BulkDock/SCRATCH/511024/C64815-P97

>  <fragmenstein_runtime>  (1277) 
9.09227466583252

>  <fragmenstein_outcome>  (1277) 
too moved

>  <fragmenstein_mode>  (1277) 
expansion

>  <fragmenstein_error>  (1277) 


$$$$
C64815-P7
     RDKit          3D

 45 46  0  0  0  0  0  0  0  0999 V2000
   -7.7123    0.0953   35.1507 C   0  0  0  0  0  0  0  0  0  0  0  0
   -6.9841    0.2123   33.4900 S   0  0  0  0  0  0  0  0  0  0  0  0
   -5.7578   -1.1266   33.6081 C   0  0  0  0  0  0  0  0  0  0  0  0
   -5.1945   -1.6056   32.2499 C   0  0  0  0  0  0  0  0  0  0  0  0
   -4.0333   -0.7427   31.6959 C   0  0  0  0  0  0  0  0  0  0  0  0
   -3.1948   -1.3802   30.5214 C   0  0  0  0  0  0  0  0  0  0  0  0
   -1.9871   -0.4655   30.0640 C   0  0  0  0  0  0  0  0  0  0  0  0
   -0.9151   -0.9042   28.8926 C   0  0  0  0  0  0  0  0  0  0  0  0
    0.2306    0.2132   28.7309 C   0  0  0  0  0  0  0  0  0  0  0  0
   -0.1829    1.3498   28.6509 O   0  0  0  0  0  0  0  0  0  0  0  0
    1.5977   -0.2920   28.8076 N   0  0  0  0  0  0  0  0  0  0  0  0
    2.9378    0.4537   28.9248 C   0  0  0  0  0  0  0  0  0  0  0  0
    2.2042   -0.5982   27.2961 C   0  0  0  0  0  0  0  0  0  0  0  0
    3.0053   -1.7564   27.1377 C   0  0  0  0  0  0  0  0  0  0  0  0
    3.8741   -1.9623   26.0300 C   0  0  0  0  0  0  0  0  0  0  0  0
    3.9485   -0.9791   25.0365 C   0  0  0  0  0  0  0  0  0  0  0  0
    4.6899   -0.9320   23.8707 N   0  0  0  0  0  0  0  0  0  0  0  0
    4.4719    0.2523   23.2185 C   0  0  0  0  0  0  0  0  0  0  0  0
    3.5394    0.9568   23.9537 C   0  0  0  0  0  0  0  0  0  0  0  0
    3.1776    0.1810   25.1065 C   0  0  0  0  0  0  0  0  0  0  0  0
    2.2816    0.3579   26.2295 C   0  0  0  0  0  0  0  0  0  0  0  0
   -8.1838   -0.8811   35.2900 H   0  0  0  0  0  0  0  0  0  0  0  0
   -6.9413    0.2443   35.9109 H   0  0  0  0  0  0  0  0  0  0  0  0
   -8.4718    0.8727   35.2663 H   0  0  0  0  0  0  0  0  0  0  0  0
   -4.9417   -0.8005   34.2614 H   0  0  0  0  0  0  0  0  0  0  0  0
   -6.2431   -1.9701   34.1002 H   0  0  0  0  0  0  0  0  0  0  0  0
   -5.9895   -1.6922   31.5002 H   0  0  0  0  0  0  0  0  0  0  0  0
   -4.8015   -2.6179   32.4008 H   0  0  0  0  0  0  0  0  0  0  0  0
   -4.4329    0.2205   31.3571 H   0  0  0  0  0  0  0  0  0  0  0  0
   -3.3356   -0.5257   32.5144 H   0  0  0  0  0  0  0  0  0  0  0  0
   -3.8493   -1.5645   29.6628 H   0  0  0  0  0  0  0  0  0  0  0  0
   -2.7900   -2.3423   30.8530 H   0  0  0  0  0  0  0  0  0  0  0  0
   -1.3836   -0.2480   30.9554 H   0  0  0  0  0  0  0  0  0  0  0  0
   -2.4122    0.4965   29.7491 H   0  0  0  0  0  0  0  0  0  0  0  0
   -0.4583   -1.8583   29.1716 H   0  0  0  0  0  0  0  0  0  0  0  0
   -1.4398   -1.0076   27.9393 H   0  0  0  0  0  0  0  0  0  0  0  0
    2.9769    1.3951   28.3622 H   0  0  0  0  0  0  0  0  0  0  0  0
    2.9154    0.8044   29.9673 H   0  0  0  0  0  0  0  0  0  0  0  0
    3.8362   -0.1751   28.8848 H   0  0  0  0  0  0  0  0  0  0  0  0
    2.9895   -2.5052   27.9272 H   0  0  0  0  0  0  0  0  0  0  0  0
    4.4728   -2.8625   25.9647 H   0  0  0  0  0  0  0  0  0  0  0  0
    5.2936   -1.6761   23.5527 H   0  0  0  0  0  0  0  0  0  0  0  0
    4.9724    0.4813   22.2883 H   0  0  0  0  0  0  0  0  0  0  0  0
    3.1394    1.9282   23.6941 H   0  0  0  0  0  0  0  0  0  0  0  0
    1.7179    1.2856   26.3024 H   0  0  0  0  0  0  0  0  0  0  0  0
  1  2  1  0
  2  3  1  0
  3  4  1  0
  4  5  1  0
  5  6  1  0
  6  7  1  0
  7  8  1  0
  8  9  1  0
  9 10  2  0
  9 11  1  0
 11 12  1  0
 11 13  1  0
 13 14  2  0
 14 15  1  0
 15 16  2  0
 16 17  1  0
 17 18  1  0
 18 19  2  0
 19 20  1  0
 20 21  2  0
 21 13  1  0
 20 16  1  0
  1 22  1  0
  1 23  1  0
  1 24  1  0
  3 25  1  0
  3 26  1  0
  4 27  1  0
  4 28  1  0
  5 29  1  0
  5 30  1  0
  6 31  1  0
  6 32  1  0
  7 33  1  0
  7 34  1  0
  8 35  1  0
  8 36  1  0
 12 37  1  0
 12 38  1  0
 12 39  1  0
 14 40  1  0
 15 41  1  0
 17 42  1  0
 18 43  1  0
 19 44  1  0
 21 45  1  0
M  END
>  <Energy>  (1278) 
117.73067388153429

>  <compound_id>  (1278) 
64815

>  <target_id>  (1278) 
1

>  <reference_id>  (1278) 
7

>  <inspiration_ids>  (1278) 
[97, 7]

>  <energy_score>  (1278) 
50.32885964057493

>  <distance_score>  (1278) 
12.617385418336974

>  <path>  (1278) 
/opt/xchem-fragalysis-2/maxwin/BulkDock/SCRATCH/511024/C64815-P7/C64815-P7.minimised.mol

>  <scratch_subdir>  (1278) 
/opt/xchem-fragalysis-2/maxwin/BulkDock/SCRATCH/511024/C64815-P7

>  <fragmenstein_runtime>  (1278) 
8.40979552268982

>  <fragmenstein_outcome>  (1278) 
too moved

>  <fragmenstein_mode>  (1278) 
expansion

>  <fragmenstein_error>  (1278) 


$$$$
C64818-P97
     RDKit          3D

 40 41  0  0  0  0  0  0  0  0999 V2000
   -1.4253   -4.3781   32.4508 C   0  0  0  0  0  0  0  0  0  0  0  0
   -2.7259   -3.6359   32.4331 C   0  0  0  0  0  0  0  0  0  0  0  0
   -2.9219   -2.3321   32.1630 C   0  0  0  0  0  0  0  0  0  0  0  0
   -1.8227   -1.3715   31.8906 C   0  0  0  0  0  0  0  0  0  0  0  0
   -0.7185   -1.2169   31.0932 C   0  0  0  0  0  0  0  0  0  0  0  0
    0.0922   -1.8540   29.8915 C   0  0  0  0  0  0  0  0  0  0  0  0
   -0.3576   -2.7842   29.2722 O   0  0  0  0  0  0  0  0  0  0  0  0
    1.3320   -1.0581   29.6742 N   0  0  0  0  0  0  0  0  0  0  0  0
    1.0363    0.1654   28.7598 C   0  0  0  0  0  0  0  0  0  0  0  0
    2.5117   -1.2474   28.6354 C   0  0  0  0  0  0  0  0  0  0  0  0
    3.7975   -0.8622   29.0870 C   0  0  0  0  0  0  0  0  0  0  0  0
    4.9513   -0.8278   28.2572 C   0  0  0  0  0  0  0  0  0  0  0  0
    4.8437   -1.1568   26.8966 C   0  0  0  0  0  0  0  0  0  0  0  0
    5.7425   -1.1103   25.7884 C   0  0  0  0  0  0  0  0  0  0  0  0
    5.0235   -1.4647   24.6758 C   0  0  0  0  0  0  0  0  0  0  0  0
    3.7560   -1.8239   25.0846 N   0  0  0  0  0  0  0  0  0  0  0  0
    3.6017   -1.6080   26.4454 C   0  0  0  0  0  0  0  0  0  0  0  0
    2.4536   -1.7343   27.3066 C   0  0  0  0  0  0  0  0  0  0  0  0
   -4.3405   -1.7570   32.3423 C   0  0  0  0  0  0  0  0  0  0  0  0
   -5.1356   -2.1530   33.5943 C   0  0  0  0  0  0  0  0  0  0  0  0
   -1.3180   -4.8994   33.4076 H   0  0  0  0  0  0  0  0  0  0  0  0
   -0.5508   -3.7357   32.3311 H   0  0  0  0  0  0  0  0  0  0  0  0
   -1.4130   -5.1273   31.6538 H   0  0  0  0  0  0  0  0  0  0  0  0
   -3.5799   -4.2628   32.6837 H   0  0  0  0  0  0  0  0  0  0  0  0
   -1.9378   -0.5402   32.5972 H   0  0  0  0  0  0  0  0  0  0  0  0
   -0.1751   -0.3055   31.3604 H   0  0  0  0  0  0  0  0  0  0  0  0
    1.8553    0.8949   28.6741 H   0  0  0  0  0  0  0  0  0  0  0  0
    0.5598   -0.1160   27.8102 H   0  0  0  0  0  0  0  0  0  0  0  0
    0.2467    0.7209   29.2853 H   0  0  0  0  0  0  0  0  0  0  0  0
    3.9076   -0.5388   30.1216 H   0  0  0  0  0  0  0  0  0  0  0  0
    5.8979   -0.4875   28.6672 H   0  0  0  0  0  0  0  0  0  0  0  0
    6.7715   -0.7790   25.8037 H   0  0  0  0  0  0  0  0  0  0  0  0
    5.2779   -1.4691   23.6258 H   0  0  0  0  0  0  0  0  0  0  0  0
    2.9909   -2.0903   24.4709 H   0  0  0  0  0  0  0  0  0  0  0  0
    1.5142   -2.1034   26.9149 H   0  0  0  0  0  0  0  0  0  0  0  0
   -4.9269   -2.0747   31.4753 H   0  0  0  0  0  0  0  0  0  0  0  0
   -4.2900   -0.6616   32.3185 H   0  0  0  0  0  0  0  0  0  0  0  0
   -6.0602   -1.5694   33.6509 H   0  0  0  0  0  0  0  0  0  0  0  0
   -4.5545   -1.9680   34.5027 H   0  0  0  0  0  0  0  0  0  0  0  0
   -5.4151   -3.2077   33.5597 H   0  0  0  0  0  0  0  0  0  0  0  0
  1  2  1  0
  2  3  2  3
  3  4  1  0
  4  5  2  3
  5  6  1  0
  6  7  2  0
  6  8  1  0
  8  9  1  0
  8 10  1  0
 10 11  2  0
 11 12  1  0
 12 13  2  0
 13 14  1  0
 14 15  2  0
 15 16  1  0
 16 17  1  0
 17 18  2  0
  3 19  1  0
 19 20  1  0
 18 10  1  0
 17 13  1  0
  1 21  1  0
  1 22  1  0
  1 23  1  0
  2 24  1  0
  4 25  1  0
  5 26  1  0
  9 27  1  0
  9 28  1  0
  9 29  1  0
 11 30  1  0
 12 31  1  0
 14 32  1  0
 15 33  1  0
 16 34  1  0
 18 35  1  0
 19 36  1  0
 19 37  1  0
 20 38  1  0
 20 39  1  0
 20 40  1  0
M  END
>  <Energy>  (1279) 
125.74722681077503

>  <compound_id>  (1279) 
64818

>  <target_id>  (1279) 
1

>  <reference_id>  (1279) 
97

>  <inspiration_ids>  (1279) 
[97, 7]

>  <energy_score>  (1279) 
39.08292871694459

>  <distance_score>  (1279) 
13.39908369380621

>  <path>  (1279) 
/opt/xchem-fragalysis-2/maxwin/BulkDock/SCRATCH/511024/C64818-P97/C64818-P97.minimised.mol

>  <scratch_subdir>  (1279) 
/opt/xchem-fragalysis-2/maxwin/BulkDock/SCRATCH/511024/C64818-P97

>  <fragmenstein_runtime>  (1279) 
18.62501335144043

>  <fragmenstein_outcome>  (1279) 
too moved

>  <fragmenstein_mode>  (1279) 
expansion

>  <fragmenstein_error>  (1279) 


$$$$
C64818-P7
     RDKit          3D

 40 41  0  0  0  0  0  0  0  0999 V2000
   -2.3656    0.9742   31.5277 C   0  0  0  0  0  0  0  0  0  0  0  0
   -2.9339   -0.3256   32.0094 C   0  0  0  0  0  0  0  0  0  0  0  0
   -2.3180   -1.5265   32.0542 C   0  0  0  0  0  0  0  0  0  0  0  0
   -0.8833   -1.7324   31.6440 C   0  0  0  0  0  0  0  0  0  0  0  0
   -0.2216   -1.4870   30.4692 C   0  0  0  0  0  0  0  0  0  0  0  0
    1.3404   -1.6598   30.2614 C   0  0  0  0  0  0  0  0  0  0  0  0
    2.0212   -1.7962   31.2494 O   0  0  0  0  0  0  0  0  0  0  0  0
    1.7113   -1.6691   28.8394 N   0  0  0  0  0  0  0  0  0  0  0  0
    1.6123   -3.0916   28.2736 C   0  0  0  0  0  0  0  0  0  0  0  0
    3.1441   -1.7458   28.1358 C   0  0  0  0  0  0  0  0  0  0  0  0
    4.3396   -1.9932   28.8237 C   0  0  0  0  0  0  0  0  0  0  0  0
    5.6135   -2.0307   28.1634 C   0  0  0  0  0  0  0  0  0  0  0  0
    5.7387   -1.7717   26.7777 C   0  0  0  0  0  0  0  0  0  0  0  0
    6.8180   -1.7201   25.8372 C   0  0  0  0  0  0  0  0  0  0  0  0
    6.2928   -1.3670   24.6145 C   0  0  0  0  0  0  0  0  0  0  0  0
    4.9370   -1.2105   24.7816 N   0  0  0  0  0  0  0  0  0  0  0  0
    4.5702   -1.4574   26.0932 C   0  0  0  0  0  0  0  0  0  0  0  0
    3.3010   -1.4176   26.7491 C   0  0  0  0  0  0  0  0  0  0  0  0
   -3.0116   -2.7433   32.7001 C   0  0  0  0  0  0  0  0  0  0  0  0
   -4.4495   -2.6018   33.2342 C   0  0  0  0  0  0  0  0  0  0  0  0
   -1.2942    0.9365   31.3212 H   0  0  0  0  0  0  0  0  0  0  0  0
   -2.8829    1.2903   30.6169 H   0  0  0  0  0  0  0  0  0  0  0  0
   -2.5216    1.7437   32.2910 H   0  0  0  0  0  0  0  0  0  0  0  0
   -3.9506   -0.2266   32.3794 H   0  0  0  0  0  0  0  0  0  0  0  0
   -0.2780   -2.1316   32.4620 H   0  0  0  0  0  0  0  0  0  0  0  0
   -0.7438   -1.1032   29.6000 H   0  0  0  0  0  0  0  0  0  0  0  0
    1.6849   -3.1829   27.1915 H   0  0  0  0  0  0  0  0  0  0  0  0
    2.2390   -3.7993   28.8350 H   0  0  0  0  0  0  0  0  0  0  0  0
    0.5854   -3.4142   28.4992 H   0  0  0  0  0  0  0  0  0  0  0  0
    4.3092   -2.1808   29.8958 H   0  0  0  0  0  0  0  0  0  0  0  0
    6.5019   -2.2504   28.7506 H   0  0  0  0  0  0  0  0  0  0  0  0
    7.8621   -1.9084   26.0480 H   0  0  0  0  0  0  0  0  0  0  0  0
    6.7479   -1.2059   23.6479 H   0  0  0  0  0  0  0  0  0  0  0  0
    4.2844   -0.9320   24.0532 H   0  0  0  0  0  0  0  0  0  0  0  0
    2.4272   -1.1559   26.1739 H   0  0  0  0  0  0  0  0  0  0  0  0
   -2.3850   -3.0800   33.5367 H   0  0  0  0  0  0  0  0  0  0  0  0
   -3.0097   -3.5557   31.9643 H   0  0  0  0  0  0  0  0  0  0  0  0
   -4.7734   -3.5558   33.6614 H   0  0  0  0  0  0  0  0  0  0  0  0
   -5.1437   -2.3341   32.4321 H   0  0  0  0  0  0  0  0  0  0  0  0
   -4.5066   -1.8452   34.0231 H   0  0  0  0  0  0  0  0  0  0  0  0
  1  2  1  0
  2  3  2  3
  3  4  1  0
  4  5  2  3
  5  6  1  0
  6  7  2  0
  6  8  1  0
  8  9  1  0
  8 10  1  0
 10 11  2  0
 11 12  1  0
 12 13  2  0
 13 14  1  0
 14 15  2  0
 15 16  1  0
 16 17  1  0
 17 18  2  0
  3 19  1  0
 19 20  1  0
 18 10  1  0
 17 13  1  0
  1 21  1  0
  1 22  1  0
  1 23  1  0
  2 24  1  0
  4 25  1  0
  5 26  1  0
  9 27  1  0
  9 28  1  0
  9 29  1  0
 11 30  1  0
 12 31  1  0
 14 32  1  0
 15 33  1  0
 16 34  1  0
 18 35  1  0
 19 36  1  0
 19 37  1  0
 20 38  1  0
 20 39  1  0
 20 40  1  0
M  END
>  <Energy>  (1280) 
102.02734349992564

>  <compound_id>  (1280) 
64818

>  <target_id>  (1280) 
1

>  <reference_id>  (1280) 
7

>  <inspiration_ids>  (1280) 
[97, 7]

>  <energy_score>  (1280) 
15.363045406094386

>  <distance_score>  (1280) 
13.253606355651348

>  <path>  (1280) 
/opt/xchem-fragalysis-2/maxwin/BulkDock/SCRATCH/511024/C64818-P7/C64818-P7.minimised.mol

>  <scratch_subdir>  (1280) 
/opt/xchem-fragalysis-2/maxwin/BulkDock/SCRATCH/511024/C64818-P7

>  <fragmenstein_runtime>  (1280) 
14.260456562042236

>  <fragmenstein_outcome>  (1280) 
too moved

>  <fragmenstein_mode>  (1280) 
expansion

>  <fragmenstein_error>  (1280) 


$$$$
C64820-P97
     RDKit          3D

 38 39  0  0  0  0  0  0  0  0999 V2000
    4.0249   -0.5266   20.5886 C   0  0  0  0  0  0  0  0  0  0  0  0
    4.9628   -1.7326   20.7584 C   0  0  0  0  0  0  0  0  0  0  0  0
    4.6010   -2.3722   22.1145 N   0  0  0  0  0  0  0  0  0  0  0  0
    4.8357   -1.9003   23.4903 C   0  0  0  0  0  0  0  0  0  0  0  0
    5.4473   -0.9407   23.8954 O   0  0  0  0  0  0  0  0  0  0  0  0
    4.0555   -2.7655   24.5159 C   0  0  0  0  0  0  0  0  0  0  0  0
    3.4990   -2.2369   25.9417 C   0  0  0  0  0  0  0  0  0  0  0  0
    2.8029   -0.8925   26.2289 C   0  0  0  0  0  0  0  0  0  0  0  0
    1.7299   -0.9555   27.3452 C   0  0  0  0  0  0  0  0  0  0  0  0
    3.7654   -0.0208   26.6663 F   0  0  0  0  0  0  0  0  0  0  0  0
    2.3091   -0.3275   25.1075 F   0  0  0  0  0  0  0  0  0  0  0  0
    5.7998   -3.4349   21.6339 C   0  0  0  0  0  0  0  0  0  0  0  0
    5.5651   -4.4789   20.7650 C   0  0  0  0  0  0  0  0  0  0  0  0
    6.6773   -5.1139   20.1353 C   0  0  0  0  0  0  0  0  0  0  0  0
    8.2407   -4.6143   20.1787 C   0  0  0  0  0  0  0  0  0  0  0  0
    9.7746   -5.4573   19.8300 N   0  0  0  0  0  0  0  0  0  0  0  0
   11.2720   -4.9695   20.5555 C   0  0  0  0  0  0  0  0  0  0  0  0
   10.7698   -3.6029   20.9174 C   0  0  0  0  0  0  0  0  0  0  0  0
    8.5967   -3.4675   20.8338 C   0  0  0  0  0  0  0  0  0  0  0  0
    7.1992   -3.2516   21.8365 C   0  0  0  0  0  0  0  0  0  0  0  0
    4.2221   -0.0240   19.6366 H   0  0  0  0  0  0  0  0  0  0  0  0
    4.1662    0.1994   21.3962 H   0  0  0  0  0  0  0  0  0  0  0  0
    2.9769   -0.8439   20.6023 H   0  0  0  0  0  0  0  0  0  0  0  0
    4.7325   -2.3687   19.8973 H   0  0  0  0  0  0  0  0  0  0  0  0
    5.9641   -1.2835   20.7686 H   0  0  0  0  0  0  0  0  0  0  0  0
    4.7268   -3.5958   24.7225 H   0  0  0  0  0  0  0  0  0  0  0  0
    3.2061   -3.1959   23.9772 H   0  0  0  0  0  0  0  0  0  0  0  0
    2.7768   -2.9753   26.2757 H   0  0  0  0  0  0  0  0  0  0  0  0
    4.3472   -2.3119   26.6354 H   0  0  0  0  0  0  0  0  0  0  0  0
    0.9644   -1.7064   27.1496 H   0  0  0  0  0  0  0  0  0  0  0  0
    2.2019   -1.1844   28.3060 H   0  0  0  0  0  0  0  0  0  0  0  0
    1.2382    0.0180   27.4357 H   0  0  0  0  0  0  0  0  0  0  0  0
    4.5561   -4.8172   20.5532 H   0  0  0  0  0  0  0  0  0  0  0  0
    6.4597   -6.0252   19.5646 H   0  0  0  0  0  0  0  0  0  0  0  0
    9.9259   -5.4422   18.8577 H   0  0  0  0  0  0  0  0  0  0  0  0
   12.1864   -5.3596   20.1277 H   0  0  0  0  0  0  0  0  0  0  0  0
   11.3176   -3.4508   21.8846 H   0  0  0  0  0  0  0  0  0  0  0  0
    7.3073   -3.3080   22.9361 H   0  0  0  0  0  0  0  0  0  0  0  0
  1  2  1  0
  2  3  1  0
  3  4  1  0
  4  5  2  0
  4  6  1  0
  6  7  1  0
  7  8  1  0
  8  9  1  0
  8 10  1  0
  8 11  1  0
  3 12  1  0
 12 13  2  0
 13 14  1  0
 14 15  2  0
 15 16  1  0
 16 17  1  0
 17 18  2  0
 18 19  1  0
 19 20  2  0
 20 12  1  0
 19 15  1  0
  1 21  1  0
  1 22  1  0
  1 23  1  0
  2 24  1  0
  2 25  1  0
  6 26  1  0
  6 27  1  0
  7 28  1  0
  7 29  1  0
  9 30  1  0
  9 31  1  0
  9 32  1  0
 13 33  1  0
 14 34  1  0
 16 35  1  0
 17 36  1  0
 18 37  1  0
 20 38  1  0
M  END
>  <Energy>  (1281) 
482.95379103134979

>  <compound_id>  (1281) 
64820

>  <target_id>  (1281) 
1

>  <reference_id>  (1281) 
97

>  <inspiration_ids>  (1281) 
[97, 7]

>  <energy_score>  (1281) 
434.2334319301042

>  <distance_score>  (1281) 
13.097755134234578

>  <path>  (1281) 
/opt/xchem-fragalysis-2/maxwin/BulkDock/SCRATCH/511024/C64820-P97/C64820-P97.minimised.mol

>  <scratch_subdir>  (1281) 
/opt/xchem-fragalysis-2/maxwin/BulkDock/SCRATCH/511024/C64820-P97

>  <fragmenstein_runtime>  (1281) 
9.417670965194702

>  <fragmenstein_outcome>  (1281) 
too moved

>  <fragmenstein_mode>  (1281) 
expansion

>  <fragmenstein_error>  (1281) 


$$$$
C64820-P7
     RDKit          3D

 38 39  0  0  0  0  0  0  0  0999 V2000
   -0.0153    1.7128   21.5125 C   0  0  0  0  0  0  0  0  0  0  0  0
   -1.0812    1.1521   20.5555 C   0  0  0  0  0  0  0  0  0  0  0  0
   -1.8256   -0.1572   20.9350 N   0  0  0  0  0  0  0  0  0  0  0  0
   -2.2611   -0.6616   22.2399 C   0  0  0  0  0  0  0  0  0  0  0  0
   -2.0694   -0.2272   23.3491 O   0  0  0  0  0  0  0  0  0  0  0  0
   -3.2131   -1.8993   22.1517 C   0  0  0  0  0  0  0  0  0  0  0  0
   -4.0658   -2.3492   23.4535 C   0  0  0  0  0  0  0  0  0  0  0  0
   -5.0500   -1.3772   24.1453 C   0  0  0  0  0  0  0  0  0  0  0  0
   -5.7305   -1.9363   25.4024 C   0  0  0  0  0  0  0  0  0  0  0  0
   -6.0189   -1.0481   23.2466 F   0  0  0  0  0  0  0  0  0  0  0  0
   -4.4341   -0.2216   24.4811 F   0  0  0  0  0  0  0  0  0  0  0  0
   -0.3364   -0.8210   20.4999 C   0  0  0  0  0  0  0  0  0  0  0  0
    0.4233   -1.6220   21.3570 C   0  0  0  0  0  0  0  0  0  0  0  0
    1.7745   -1.9991   21.0888 C   0  0  0  0  0  0  0  0  0  0  0  0
    2.3818   -1.5693   19.9006 C   0  0  0  0  0  0  0  0  0  0  0  0
    3.6754   -1.6922   19.4319 N   0  0  0  0  0  0  0  0  0  0  0  0
    3.7969   -1.0552   18.2219 C   0  0  0  0  0  0  0  0  0  0  0  0
    2.5447   -0.6159   17.8543 C   0  0  0  0  0  0  0  0  0  0  0  0
    1.6465   -0.8997   18.9297 C   0  0  0  0  0  0  0  0  0  0  0  0
    0.2675   -0.6244   19.2002 C   0  0  0  0  0  0  0  0  0  0  0  0
   -0.3319    1.6247   22.5560 H   0  0  0  0  0  0  0  0  0  0  0  0
    0.1381    2.7770   21.3017 H   0  0  0  0  0  0  0  0  0  0  0  0
    0.9586    1.2279   21.4091 H   0  0  0  0  0  0  0  0  0  0  0  0
   -0.9283    1.3395   19.4877 H   0  0  0  0  0  0  0  0  0  0  0  0
   -1.9146    1.8549   20.7289 H   0  0  0  0  0  0  0  0  0  0  0  0
   -2.6038   -2.7565   21.8431 H   0  0  0  0  0  0  0  0  0  0  0  0
   -3.9344   -1.6937   21.3515 H   0  0  0  0  0  0  0  0  0  0  0  0
   -3.3760   -2.7512   24.1891 H   0  0  0  0  0  0  0  0  0  0  0  0
   -4.6576   -3.2106   23.1145 H   0  0  0  0  0  0  0  0  0  0  0  0
   -6.4084   -1.1854   25.8207 H   0  0  0  0  0  0  0  0  0  0  0  0
   -4.9901   -2.1823   26.1682 H   0  0  0  0  0  0  0  0  0  0  0  0
   -6.3232   -2.8231   25.1619 H   0  0  0  0  0  0  0  0  0  0  0  0
    0.0041   -1.9507   22.2971 H   0  0  0  0  0  0  0  0  0  0  0  0
    2.3237   -2.5672   21.8370 H   0  0  0  0  0  0  0  0  0  0  0  0
    4.4248   -2.1513   19.9343 H   0  0  0  0  0  0  0  0  0  0  0  0
    4.7502   -0.9810   17.7231 H   0  0  0  0  0  0  0  0  0  0  0  0
    2.3019   -0.0918   16.9395 H   0  0  0  0  0  0  0  0  0  0  0  0
   -0.3040   -0.1713   18.3939 H   0  0  0  0  0  0  0  0  0  0  0  0
  1  2  1  0
  2  3  1  0
  3  4  1  0
  4  5  2  0
  4  6  1  0
  6  7  1  0
  7  8  1  0
  8  9  1  0
  8 10  1  0
  8 11  1  0
  3 12  1  0
 12 13  2  0
 13 14  1  0
 14 15  2  0
 15 16  1  0
 16 17  1  0
 17 18  2  0
 18 19  1  0
 19 20  2  0
 20 12  1  0
 19 15  1  0
  1 21  1  0
  1 22  1  0
  1 23  1  0
  2 24  1  0
  2 25  1  0
  6 26  1  0
  6 27  1  0
  7 28  1  0
  7 29  1  0
  9 30  1  0
  9 31  1  0
  9 32  1  0
 13 33  1  0
 14 34  1  0
 16 35  1  0
 17 36  1  0
 18 37  1  0
 20 38  1  0
M  END
>  <Energy>  (1282) 
106.73682625347483

>  <compound_id>  (1282) 
64820

>  <target_id>  (1282) 
1

>  <reference_id>  (1282) 
7

>  <inspiration_ids>  (1282) 
[97, 7]

>  <energy_score>  (1282) 
58.01646715222412

>  <distance_score>  (1282) 
13.964225738615191

>  <path>  (1282) 
/opt/xchem-fragalysis-2/maxwin/BulkDock/SCRATCH/511024/C64820-P7/C64820-P7.minimised.mol

>  <scratch_subdir>  (1282) 
/opt/xchem-fragalysis-2/maxwin/BulkDock/SCRATCH/511024/C64820-P7

>  <fragmenstein_runtime>  (1282) 
9.48864459991455

>  <fragmenstein_outcome>  (1282) 
too moved

>  <fragmenstein_mode>  (1282) 
expansion

>  <fragmenstein_error>  (1282) 


$$$$
C64825-P97
     RDKit          3D

 28 29  0  0  0  0  0  0  0  0999 V2000
    1.7040   -2.5037   29.7027 C   0  0  0  0  0  0  0  0  0  0  0  0
    1.9516   -1.9802   28.2639 C   0  0  0  0  0  0  0  0  0  0  0  0
    0.9774   -0.8134   28.0786 C   0  0  0  0  0  0  0  0  0  0  0  0
    1.5746   -3.0048   27.4470 F   0  0  0  0  0  0  0  0  0  0  0  0
    3.5163   -1.6769   27.9788 C   0  0  0  0  0  0  0  0  0  0  0  0
    4.1109   -1.2544   26.6744 N   0  0  0  0  0  0  0  0  0  0  0  0
    3.8737   -0.0139   26.1122 C   0  0  0  0  0  0  0  0  0  0  0  0
    4.7578    0.2099   25.0793 C   0  0  0  0  0  0  0  0  0  0  0  0
    5.6182   -0.9043   24.9836 C   0  0  0  0  0  0  0  0  0  0  0  0
    6.7087   -1.2041   24.1319 C   0  0  0  0  0  0  0  0  0  0  0  0
    7.4398   -2.3710   24.3368 C   0  0  0  0  0  0  0  0  0  0  0  0
    7.1023   -3.2291   25.3715 C   0  0  0  0  0  0  0  0  0  0  0  0
    6.0194   -2.9475   26.2218 C   0  0  0  0  0  0  0  0  0  0  0  0
    5.2455   -1.7895   26.0135 C   0  0  0  0  0  0  0  0  0  0  0  0
    0.6580   -2.7986   29.8385 H   0  0  0  0  0  0  0  0  0  0  0  0
    1.9653   -1.7494   30.4514 H   0  0  0  0  0  0  0  0  0  0  0  0
    2.3107   -3.3976   29.8827 H   0  0  0  0  0  0  0  0  0  0  0  0
    1.0409   -0.4235   27.0639 H   0  0  0  0  0  0  0  0  0  0  0  0
   -0.0587   -1.1365   28.2260 H   0  0  0  0  0  0  0  0  0  0  0  0
    1.1976    0.0048   28.7715 H   0  0  0  0  0  0  0  0  0  0  0  0
    4.0657   -2.5837   28.2504 H   0  0  0  0  0  0  0  0  0  0  0  0
    3.8355   -0.8956   28.6820 H   0  0  0  0  0  0  0  0  0  0  0  0
    3.0876    0.6203   26.4939 H   0  0  0  0  0  0  0  0  0  0  0  0
    4.7691    1.0882   24.4481 H   0  0  0  0  0  0  0  0  0  0  0  0
    6.9721   -0.5135   23.3374 H   0  0  0  0  0  0  0  0  0  0  0  0
    8.2766   -2.6045   23.7019 H   0  0  0  0  0  0  0  0  0  0  0  0
    7.6828   -4.1335   25.5365 H   0  0  0  0  0  0  0  0  0  0  0  0
    5.8033   -3.6208   27.0402 H   0  0  0  0  0  0  0  0  0  0  0  0
  1  2  1  0
  2  3  1  0
  2  4  1  0
  2  5  1  0
  5  6  1  0
  6  7  1  0
  7  8  2  0
  8  9  1  0
  9 10  2  0
 10 11  1  0
 11 12  2  0
 12 13  1  0
 13 14  2  0
 14  6  1  0
 14  9  1  0
  1 15  1  0
  1 16  1  0
  1 17  1  0
  3 18  1  0
  3 19  1  0
  3 20  1  0
  5 21  1  0
  5 22  1  0
  7 23  1  0
  8 24  1  0
 10 25  1  0
 11 26  1  0
 12 27  1  0
 13 28  1  0
M  END
>  <Energy>  (1283) 
42.25467935340923

>  <compound_id>  (1283) 
64825

>  <target_id>  (1283) 
1

>  <reference_id>  (1283) 
97

>  <inspiration_ids>  (1283) 
[97, 7]

>  <energy_score>  (1283) 
-0.03983388813927036

>  <distance_score>  (1283) 
14.109331536087538

>  <path>  (1283) 
/opt/xchem-fragalysis-2/maxwin/BulkDock/SCRATCH/511024/C64825-P97/C64825-P97.minimised.mol

>  <scratch_subdir>  (1283) 
/opt/xchem-fragalysis-2/maxwin/BulkDock/SCRATCH/511024/C64825-P97

>  <fragmenstein_runtime>  (1283) 
6.2809624671936035

>  <fragmenstein_outcome>  (1283) 
too moved

>  <fragmenstein_mode>  (1283) 
expansion

>  <fragmenstein_error>  (1283) 


$$$$
C64825-P7
     RDKit          3D

 28 29  0  0  0  0  0  0  0  0999 V2000
   -2.5590   -3.5349   24.3042 C   0  0  0  0  0  0  0  0  0  0  0  0
   -0.8598   -2.9100   23.3025 C   0  0  0  0  0  0  0  0  0  0  0  0
   -2.2700   -2.0690   22.7389 C   0  0  0  0  0  0  0  0  0  0  0  0
   -0.7436   -4.6128   23.6448 F   0  0  0  0  0  0  0  0  0  0  0  0
    1.1745   -3.1061   22.8042 C   0  0  0  0  0  0  0  0  0  0  0  0
    2.9017   -2.6729   23.6151 N   0  0  0  0  0  0  0  0  0  0  0  0
    3.2189   -2.8862   25.0375 C   0  0  0  0  0  0  0  0  0  0  0  0
    4.0798   -2.0480   25.6769 C   0  0  0  0  0  0  0  0  0  0  0  0
    4.9317   -1.5165   24.7452 C   0  0  0  0  0  0  0  0  0  0  0  0
    6.1477   -0.7870   24.9348 C   0  0  0  0  0  0  0  0  0  0  0  0
    7.0460   -0.4998   23.9149 C   0  0  0  0  0  0  0  0  0  0  0  0
    6.7731   -0.9810   22.6693 C   0  0  0  0  0  0  0  0  0  0  0  0
    5.5854   -1.6939   22.4534 C   0  0  0  0  0  0  0  0  0  0  0  0
    4.4702   -1.9500   23.4708 C   0  0  0  0  0  0  0  0  0  0  0  0
   -2.8531   -3.2278   25.3052 H   0  0  0  0  0  0  0  0  0  0  0  0
   -2.4872   -4.6163   24.2611 H   0  0  0  0  0  0  0  0  0  0  0  0
   -3.5052   -3.3086   23.8005 H   0  0  0  0  0  0  0  0  0  0  0  0
   -2.7113   -1.7352   23.6472 H   0  0  0  0  0  0  0  0  0  0  0  0
   -2.4980   -1.1137   22.2998 H   0  0  0  0  0  0  0  0  0  0  0  0
   -3.0590   -2.6162   22.2261 H   0  0  0  0  0  0  0  0  0  0  0  0
    1.3497   -3.2826   21.7554 H   0  0  0  0  0  0  0  0  0  0  0  0
    1.3694   -4.1772   23.0127 H   0  0  0  0  0  0  0  0  0  0  0  0
    2.5887   -3.5370   25.5739 H   0  0  0  0  0  0  0  0  0  0  0  0
    4.1881   -1.9960   26.7509 H   0  0  0  0  0  0  0  0  0  0  0  0
    6.3967   -0.4764   25.9478 H   0  0  0  0  0  0  0  0  0  0  0  0
    7.9526    0.0567   24.1231 H   0  0  0  0  0  0  0  0  0  0  0  0
    7.4590   -0.8191   21.8487 H   0  0  0  0  0  0  0  0  0  0  0  0
    5.5919   -2.1289   21.4521 H   0  0  0  0  0  0  0  0  0  0  0  0
  1  2  1  0
  2  3  1  0
  2  4  1  0
  2  5  1  0
  5  6  1  0
  6  7  1  0
  7  8  2  0
  8  9  1  0
  9 10  2  0
 10 11  1  0
 11 12  2  0
 12 13  1  0
 13 14  2  0
 14  6  1  0
 14  9  1  0
  1 15  1  0
  1 16  1  0
  1 17  1  0
  3 18  1  0
  3 19  1  0
  3 20  1  0
  5 21  1  0
  5 22  1  0
  7 23  1  0
  8 24  1  0
 10 25  1  0
 11 26  1  0
 12 27  1  0
 13 28  1  0
M  END
>  <Energy>  (1284) 
610.8767260349681

>  <compound_id>  (1284) 
64825

>  <target_id>  (1284) 
1

>  <reference_id>  (1284) 
7

>  <inspiration_ids>  (1284) 
[97, 7]

>  <energy_score>  (1284) 
568.5822127934194

>  <distance_score>  (1284) 
14.517566556915646

>  <path>  (1284) 
/opt/xchem-fragalysis-2/maxwin/BulkDock/SCRATCH/511024/C64825-P7/C64825-P7.minimised.mol

>  <scratch_subdir>  (1284) 
/opt/xchem-fragalysis-2/maxwin/BulkDock/SCRATCH/511024/C64825-P7

>  <fragmenstein_runtime>  (1284) 
6.1596996784210205

>  <fragmenstein_outcome>  (1284) 
too moved

>  <fragmenstein_mode>  (1284) 
expansion

>  <fragmenstein_error>  (1284) 


$$$$
C64827-P97
     RDKit          3D

 36 37  0  0  0  0  0  0  0  0999 V2000
    0.8149   -5.0093   21.8592 C   0  0  0  0  0  0  0  0  0  0  0  0
    1.7285   -3.9832   21.9866 N   0  0  0  0  0  0  0  0  0  0  0  0
    2.5722   -3.2887   23.5572 C   0  0  0  0  0  0  0  0  0  0  0  0
    2.4561   -3.7761   24.7054 O   0  0  0  0  0  0  0  0  0  0  0  0
    3.3391   -2.0491   23.6629 C   0  0  0  0  0  0  0  0  0  0  0  0
    3.4608   -1.7745   25.9817 S   0  0  0  0  0  0  0  0  0  0  0  0
    1.6781   -1.5061   27.1250 C   0  0  0  0  0  0  0  0  0  0  0  0
    0.9906   -2.6025   28.0263 C   0  0  0  0  0  0  0  0  0  0  0  0
   -0.2772   -2.2475   28.8753 C   0  0  0  0  0  0  0  0  0  0  0  0
   -0.6940   -3.3827   29.5068 F   0  0  0  0  0  0  0  0  0  0  0  0
   -0.0421   -1.3485   29.8610 F   0  0  0  0  0  0  0  0  0  0  0  0
   -1.3430   -1.7889   28.1856 F   0  0  0  0  0  0  0  0  0  0  0  0
    2.3491   -5.3514   20.6227 C   0  0  0  0  0  0  0  0  0  0  0  0
    1.8186   -6.5536   19.8368 C   0  0  0  0  0  0  0  0  0  0  0  0
    2.4227   -7.6716   18.4593 C   0  0  0  0  0  0  0  0  0  0  0  0
    3.9089   -7.5175   17.7908 C   0  0  0  0  0  0  0  0  0  0  0  0
    4.6006   -8.1275   16.7666 C   0  0  0  0  0  0  0  0  0  0  0  0
    5.4840   -7.1448   16.4592 C   0  0  0  0  0  0  0  0  0  0  0  0
    5.6999   -6.2691   17.5046 N   0  0  0  0  0  0  0  0  0  0  0  0
    4.6340   -6.3047   18.3605 C   0  0  0  0  0  0  0  0  0  0  0  0
    3.8281   -5.1643   19.5796 C   0  0  0  0  0  0  0  0  0  0  0  0
    0.3123   -4.5853   21.0035 H   0  0  0  0  0  0  0  0  0  0  0  0
    0.8417   -6.0841   21.9801 H   0  0  0  0  0  0  0  0  0  0  0  0
    0.3411   -4.8957   22.8320 H   0  0  0  0  0  0  0  0  0  0  0  0
    2.6139   -1.3635   24.0336 H   0  0  0  0  0  0  0  0  0  0  0  0
    4.4029   -1.9019   23.5536 H   0  0  0  0  0  0  0  0  0  0  0  0
    2.1065   -0.8026   27.8529 H   0  0  0  0  0  0  0  0  0  0  0  0
    0.9719   -0.8889   26.5954 H   0  0  0  0  0  0  0  0  0  0  0  0
    1.7546   -2.9525   28.7326 H   0  0  0  0  0  0  0  0  0  0  0  0
    0.7462   -3.4727   27.4190 H   0  0  0  0  0  0  0  0  0  0  0  0
    0.9657   -7.1458   20.2199 H   0  0  0  0  0  0  0  0  0  0  0  0
    1.8331   -8.5371   18.1475 H   0  0  0  0  0  0  0  0  0  0  0  0
    4.2946   -8.9568   16.1428 H   0  0  0  0  0  0  0  0  0  0  0  0
    5.9967   -7.0555   15.5232 H   0  0  0  0  0  0  0  0  0  0  0  0
    6.4229   -5.5786   17.5241 H   0  0  0  0  0  0  0  0  0  0  0  0
    4.6164   -4.4045   19.7081 H   0  0  0  0  0  0  0  0  0  0  0  0
  1  2  1  0
  2  3  1  0
  3  4  2  0
  3  5  1  0
  5  6  1  0
  6  7  1  0
  7  8  1  0
  8  9  1  0
  9 10  1  0
  9 11  1  0
  9 12  1  0
  2 13  1  0
 13 14  2  0
 14 15  1  0
 15 16  2  0
 16 17  1  0
 17 18  2  0
 18 19  1  0
 19 20  1  0
 20 21  2  0
 21 13  1  0
 20 16  1  0
  1 22  1  0
  1 23  1  0
  1 24  1  0
  5 25  1  0
  5 26  1  0
  7 27  1  0
  7 28  1  0
  8 29  1  0
  8 30  1  0
 14 31  1  0
 15 32  1  0
 17 33  1  0
 18 34  1  0
 19 35  1  0
 21 36  1  0
M  END
>  <Energy>  (1285) 
696.20301898187734

>  <compound_id>  (1285) 
64827

>  <target_id>  (1285) 
1

>  <reference_id>  (1285) 
97

>  <inspiration_ids>  (1285) 
[97, 7]

>  <energy_score>  (1285) 
614.4216052711846

>  <distance_score>  (1285) 
14.30990192135236

>  <path>  (1285) 
/opt/xchem-fragalysis-2/maxwin/BulkDock/SCRATCH/511024/C64827-P97/C64827-P97.minimised.mol

>  <scratch_subdir>  (1285) 
/opt/xchem-fragalysis-2/maxwin/BulkDock/SCRATCH/511024/C64827-P97

>  <fragmenstein_runtime>  (1285) 
10.389604091644287

>  <fragmenstein_outcome>  (1285) 
too moved

>  <fragmenstein_mode>  (1285) 
expansion

>  <fragmenstein_error>  (1285) 


$$$$
C64827-P7
     RDKit          3D

 36 37  0  0  0  0  0  0  0  0999 V2000
    0.5666   -5.9773   23.1507 C   0  0  0  0  0  0  0  0  0  0  0  0
    0.3721   -6.8398   24.3527 N   0  0  0  0  0  0  0  0  0  0  0  0
   -0.5943   -6.7451   25.4480 C   0  0  0  0  0  0  0  0  0  0  0  0
   -1.5280   -6.0024   25.5975 O   0  0  0  0  0  0  0  0  0  0  0  0
   -0.3871   -7.6629   26.7921 C   0  0  0  0  0  0  0  0  0  0  0  0
   -1.0136   -6.5050   28.3917 S   0  0  0  0  0  0  0  0  0  0  0  0
   -0.8432   -7.2306   30.2093 C   0  0  0  0  0  0  0  0  0  0  0  0
   -1.9734   -7.1704   31.3709 C   0  0  0  0  0  0  0  0  0  0  0  0
   -2.1225   -6.0126   32.3901 C   0  0  0  0  0  0  0  0  0  0  0  0
   -0.9660   -5.8147   33.0557 F   0  0  0  0  0  0  0  0  0  0  0  0
   -3.0760   -6.3391   33.3101 F   0  0  0  0  0  0  0  0  0  0  0  0
   -2.5262   -4.8327   31.8832 F   0  0  0  0  0  0  0  0  0  0  0  0
   -0.1394   -7.8864   23.2077 C   0  0  0  0  0  0  0  0  0  0  0  0
    0.5963   -8.3093   22.1450 C   0  0  0  0  0  0  0  0  0  0  0  0
    0.0223   -8.5352   20.9309 C   0  0  0  0  0  0  0  0  0  0  0  0
   -1.3038   -8.9644   20.7958 C   0  0  0  0  0  0  0  0  0  0  0  0
   -2.1759   -9.2944   19.7186 C   0  0  0  0  0  0  0  0  0  0  0  0
   -3.4505   -9.2777   20.2222 C   0  0  0  0  0  0  0  0  0  0  0  0
   -3.3717   -8.9526   21.5490 N   0  0  0  0  0  0  0  0  0  0  0  0
   -2.0658   -8.8044   21.9179 C   0  0  0  0  0  0  0  0  0  0  0  0
   -1.4660   -8.1972   23.0205 C   0  0  0  0  0  0  0  0  0  0  0  0
   -0.1270   -5.1900   23.3586 H   0  0  0  0  0  0  0  0  0  0  0  0
    0.7449   -6.1662   22.0974 H   0  0  0  0  0  0  0  0  0  0  0  0
    1.4154   -5.3596   23.3368 H   0  0  0  0  0  0  0  0  0  0  0  0
    0.6052   -7.8321   27.1391 H   0  0  0  0  0  0  0  0  0  0  0  0
   -0.8099   -8.6239   26.7094 H   0  0  0  0  0  0  0  0  0  0  0  0
   -0.6089   -8.2857   30.0460 H   0  0  0  0  0  0  0  0  0  0  0  0
    0.0441   -6.7358   30.6156 H   0  0  0  0  0  0  0  0  0  0  0  0
   -2.9596   -7.3894   30.9645 H   0  0  0  0  0  0  0  0  0  0  0  0
   -1.7390   -8.0426   31.9992 H   0  0  0  0  0  0  0  0  0  0  0  0
    1.6518   -8.3468   22.1595 H   0  0  0  0  0  0  0  0  0  0  0  0
    0.6365   -8.2710   20.0865 H   0  0  0  0  0  0  0  0  0  0  0  0
   -1.9331   -9.4477   18.6749 H   0  0  0  0  0  0  0  0  0  0  0  0
   -4.4090   -9.4289   19.7434 H   0  0  0  0  0  0  0  0  0  0  0  0
   -4.1570   -8.7518   22.1530 H   0  0  0  0  0  0  0  0  0  0  0  0
   -1.9862   -7.4822   23.5912 H   0  0  0  0  0  0  0  0  0  0  0  0
  1  2  1  0
  2  3  1  0
  3  4  2  0
  3  5  1  0
  5  6  1  0
  6  7  1  0
  7  8  1  0
  8  9  1  0
  9 10  1  0
  9 11  1  0
  9 12  1  0
  2 13  1  0
 13 14  2  0
 14 15  1  0
 15 16  2  0
 16 17  1  0
 17 18  2  0
 18 19  1  0
 19 20  1  0
 20 21  2  0
 21 13  1  0
 20 16  1  0
  1 22  1  0
  1 23  1  0
  1 24  1  0
  5 25  1  0
  5 26  1  0
  7 27  1  0
  7 28  1  0
  8 29  1  0
  8 30  1  0
 14 31  1  0
 15 32  1  0
 17 33  1  0
 18 34  1  0
 19 35  1  0
 21 36  1  0
M  END
>  <Energy>  (1286) 
230.35758052636024

>  <compound_id>  (1286) 
64827

>  <target_id>  (1286) 
1

>  <reference_id>  (1286) 
7

>  <inspiration_ids>  (1286) 
[97, 7]

>  <energy_score>  (1286) 
148.57616681567248

>  <distance_score>  (1286) 
16.083106448886628

>  <path>  (1286) 
/opt/xchem-fragalysis-2/maxwin/BulkDock/SCRATCH/511024/C64827-P7/C64827-P7.minimised.mol

>  <scratch_subdir>  (1286) 
/opt/xchem-fragalysis-2/maxwin/BulkDock/SCRATCH/511024/C64827-P7

>  <fragmenstein_runtime>  (1286) 
13.919479608535767

>  <fragmenstein_outcome>  (1286) 
too moved

>  <fragmenstein_mode>  (1286) 
expansion

>  <fragmenstein_error>  (1286) 


$$$$
C64831-P97
     RDKit          3D

 39 40  0  0  0  0  0  0  0  0999 V2000
   -6.2497   -1.0505   28.1844 C   0  0  0  0  0  0  0  0  0  0  0  0
   -5.6503   -0.1056   27.1472 C   0  0  0  0  0  0  0  0  0  0  0  0
   -5.2312   -0.8172   25.8334 C   0  0  0  0  0  0  0  0  0  0  0  0
   -4.3152    0.3566   24.6895 S   0  0  0  0  0  0  0  0  0  0  0  0
   -3.8073   -0.6730   23.1271 C   0  0  0  0  0  0  0  0  0  0  0  0
   -2.7756    0.0852   22.1357 C   0  0  0  0  0  0  0  0  0  0  0  0
   -2.0687   -0.6399   20.8518 C   0  0  0  0  0  0  0  0  0  0  0  0
   -2.8141   -1.2170   20.0892 O   0  0  0  0  0  0  0  0  0  0  0  0
   -0.5915   -0.3905   20.7636 N   0  0  0  0  0  0  0  0  0  0  0  0
    0.1911   -1.5388   21.4410 C   0  0  0  0  0  0  0  0  0  0  0  0
    0.4268   -0.6942   19.6163 C   0  0  0  0  0  0  0  0  0  0  0  0
    0.0662   -1.4841   18.5039 C   0  0  0  0  0  0  0  0  0  0  0  0
    0.9933   -1.8769   17.5207 C   0  0  0  0  0  0  0  0  0  0  0  0
    2.3269   -1.4623   17.5559 C   0  0  0  0  0  0  0  0  0  0  0  0
    2.7319   -0.5965   18.5813 C   0  0  0  0  0  0  0  0  0  0  0  0
    3.9832    0.0245   18.8698 C   0  0  0  0  0  0  0  0  0  0  0  0
    3.8034    0.7842   19.9968 C   0  0  0  0  0  0  0  0  0  0  0  0
    2.4967    0.6374   20.4015 N   0  0  0  0  0  0  0  0  0  0  0  0
    1.7960   -0.2152   19.5657 C   0  0  0  0  0  0  0  0  0  0  0  0
   -6.4673   -0.5010   29.1042 H   0  0  0  0  0  0  0  0  0  0  0  0
   -7.1725   -1.5010   27.8075 H   0  0  0  0  0  0  0  0  0  0  0  0
   -5.5489   -1.8557   28.4272 H   0  0  0  0  0  0  0  0  0  0  0  0
   -6.3756    0.6848   26.9203 H   0  0  0  0  0  0  0  0  0  0  0  0
   -4.7722    0.3772   27.5934 H   0  0  0  0  0  0  0  0  0  0  0  0
   -6.1110   -1.1956   25.3053 H   0  0  0  0  0  0  0  0  0  0  0  0
   -4.5552   -1.6462   26.0567 H   0  0  0  0  0  0  0  0  0  0  0  0
   -3.3887   -1.6297   23.4352 H   0  0  0  0  0  0  0  0  0  0  0  0
   -4.7303   -0.8762   22.5745 H   0  0  0  0  0  0  0  0  0  0  0  0
   -2.0215    0.6089   22.7073 H   0  0  0  0  0  0  0  0  0  0  0  0
   -3.3579    0.8964   21.6730 H   0  0  0  0  0  0  0  0  0  0  0  0
   -0.4356   -1.8140   22.2818 H   0  0  0  0  0  0  0  0  0  0  0  0
    0.2521   -2.4844   20.8784 H   0  0  0  0  0  0  0  0  0  0  0  0
    1.1584   -1.2198   21.8401 H   0  0  0  0  0  0  0  0  0  0  0  0
   -0.9556   -1.8541   18.4258 H   0  0  0  0  0  0  0  0  0  0  0  0
    0.6580   -2.5241   16.7122 H   0  0  0  0  0  0  0  0  0  0  0  0
    3.0214   -1.7836   16.7861 H   0  0  0  0  0  0  0  0  0  0  0  0
    4.8994   -0.0767   18.3054 H   0  0  0  0  0  0  0  0  0  0  0  0
    4.4802    1.4164   20.5550 H   0  0  0  0  0  0  0  0  0  0  0  0
    2.0847    1.0827   21.2098 H   0  0  0  0  0  0  0  0  0  0  0  0
  1  2  1  0
  2  3  1  0
  3  4  1  0
  4  5  1  0
  5  6  1  0
  6  7  1  0
  7  8  2  0
  7  9  1  0
  9 10  1  0
  9 11  1  0
 11 12  2  0
 12 13  1  0
 13 14  2  0
 14 15  1  0
 15 16  1  0
 16 17  2  0
 17 18  1  0
 18 19  1  0
 19 11  1  0
 19 15  2  0
  1 20  1  0
  1 21  1  0
  1 22  1  0
  2 23  1  0
  2 24  1  0
  3 25  1  0
  3 26  1  0
  5 27  1  0
  5 28  1  0
  6 29  1  0
  6 30  1  0
 10 31  1  0
 10 32  1  0
 10 33  1  0
 12 34  1  0
 13 35  1  0
 14 36  1  0
 16 37  1  0
 17 38  1  0
 18 39  1  0
M  END
>  <Energy>  (1287) 
110.48740188756597

>  <compound_id>  (1287) 
64831

>  <target_id>  (1287) 
1

>  <reference_id>  (1287) 
97

>  <inspiration_ids>  (1287) 
[97, 7]

>  <energy_score>  (1287) 
32.06517032018644

>  <distance_score>  (1287) 
13.857603361106765

>  <path>  (1287) 
/opt/xchem-fragalysis-2/maxwin/BulkDock/SCRATCH/511024/C64831-P97/C64831-P97.minimised.mol

>  <scratch_subdir>  (1287) 
/opt/xchem-fragalysis-2/maxwin/BulkDock/SCRATCH/511024/C64831-P97

>  <fragmenstein_runtime>  (1287) 
16.342358112335205

>  <fragmenstein_outcome>  (1287) 
too moved

>  <fragmenstein_mode>  (1287) 
expansion

>  <fragmenstein_error>  (1287) 


$$$$
C64831-P7
     RDKit          3D

 39 40  0  0  0  0  0  0  0  0999 V2000
   -8.4212   -0.7765   27.6803 C   0  0  0  0  0  0  0  0  0  0  0  0
   -8.0425   -0.2830   26.2876 C   0  0  0  0  0  0  0  0  0  0  0  0
   -6.8316   -1.0005   25.6383 C   0  0  0  0  0  0  0  0  0  0  0  0
   -6.4173   -0.2063   23.9743 S   0  0  0  0  0  0  0  0  0  0  0  0
   -5.1720   -1.4020   23.1259 C   0  0  0  0  0  0  0  0  0  0  0  0
   -4.3477   -0.8971   21.7546 C   0  0  0  0  0  0  0  0  0  0  0  0
   -2.7818   -1.3158   21.6947 C   0  0  0  0  0  0  0  0  0  0  0  0
   -2.4503   -1.9766   22.6485 O   0  0  0  0  0  0  0  0  0  0  0  0
   -1.9693   -0.7683   20.5735 N   0  0  0  0  0  0  0  0  0  0  0  0
   -1.4596    0.6446   20.9180 C   0  0  0  0  0  0  0  0  0  0  0  0
   -0.4258   -0.9747   20.2113 C   0  0  0  0  0  0  0  0  0  0  0  0
    0.3998   -1.6686   21.1370 C   0  0  0  0  0  0  0  0  0  0  0  0
    1.7683   -1.9408   20.9608 C   0  0  0  0  0  0  0  0  0  0  0  0
    2.4272   -1.5397   19.8086 C   0  0  0  0  0  0  0  0  0  0  0  0
    1.6815   -0.8835   18.8149 C   0  0  0  0  0  0  0  0  0  0  0  0
    2.0643   -0.3754   17.5390 C   0  0  0  0  0  0  0  0  0  0  0  0
    0.9348    0.1387   16.9572 C   0  0  0  0  0  0  0  0  0  0  0  0
   -0.1160   -0.0486   17.8256 N   0  0  0  0  0  0  0  0  0  0  0  0
    0.2958   -0.6367   19.0075 C   0  0  0  0  0  0  0  0  0  0  0  0
   -9.4671   -0.5317   27.8813 H   0  0  0  0  0  0  0  0  0  0  0  0
   -8.2982   -1.8591   27.7738 H   0  0  0  0  0  0  0  0  0  0  0  0
   -7.8211   -0.2692   28.4367 H   0  0  0  0  0  0  0  0  0  0  0  0
   -7.8558    0.7966   26.3402 H   0  0  0  0  0  0  0  0  0  0  0  0
   -8.9110   -0.4216   25.6308 H   0  0  0  0  0  0  0  0  0  0  0  0
   -7.0756   -2.0503   25.4564 H   0  0  0  0  0  0  0  0  0  0  0  0
   -5.9465   -0.9306   26.2768 H   0  0  0  0  0  0  0  0  0  0  0  0
   -5.7582   -2.2791   22.8314 H   0  0  0  0  0  0  0  0  0  0  0  0
   -4.4766   -1.7141   23.9028 H   0  0  0  0  0  0  0  0  0  0  0  0
   -4.4180    0.1921   21.6811 H   0  0  0  0  0  0  0  0  0  0  0  0
   -4.8378   -1.3446   20.8835 H   0  0  0  0  0  0  0  0  0  0  0  0
   -0.7432    0.6835   21.7477 H   0  0  0  0  0  0  0  0  0  0  0  0
   -2.3388    1.1816   21.2984 H   0  0  0  0  0  0  0  0  0  0  0  0
   -1.1634    1.2277   20.0366 H   0  0  0  0  0  0  0  0  0  0  0  0
   -0.0431   -2.0031   22.0723 H   0  0  0  0  0  0  0  0  0  0  0  0
    2.3034   -2.4737   21.7460 H   0  0  0  0  0  0  0  0  0  0  0  0
    3.4832   -1.7534   19.6774 H   0  0  0  0  0  0  0  0  0  0  0  0
    3.0523   -0.4061   17.1003 H   0  0  0  0  0  0  0  0  0  0  0  0
    0.7719    0.6030   15.9941 H   0  0  0  0  0  0  0  0  0  0  0  0
   -1.0752    0.2088   17.6395 H   0  0  0  0  0  0  0  0  0  0  0  0
  1  2  1  0
  2  3  1  0
  3  4  1  0
  4  5  1  0
  5  6  1  0
  6  7  1  0
  7  8  2  0
  7  9  1  0
  9 10  1  0
  9 11  1  0
 11 12  2  0
 12 13  1  0
 13 14  2  0
 14 15  1  0
 15 16  1  0
 16 17  2  0
 17 18  1  0
 18 19  1  0
 19 11  1  0
 19 15  2  0
  1 20  1  0
  1 21  1  0
  1 22  1  0
  2 23  1  0
  2 24  1  0
  3 25  1  0
  3 26  1  0
  5 27  1  0
  5 28  1  0
  6 29  1  0
  6 30  1  0
 10 31  1  0
 10 32  1  0
 10 33  1  0
 12 34  1  0
 13 35  1  0
 14 36  1  0
 16 37  1  0
 17 38  1  0
 18 39  1  0
M  END
>  <Energy>  (1288) 
116.19987393308885

>  <compound_id>  (1288) 
64831

>  <target_id>  (1288) 
1

>  <reference_id>  (1288) 
7

>  <inspiration_ids>  (1288) 
[97, 7]

>  <energy_score>  (1288) 
37.777642365708516

>  <distance_score>  (1288) 
13.778314078913281

>  <path>  (1288) 
/opt/xchem-fragalysis-2/maxwin/BulkDock/SCRATCH/511024/C64831-P7/C64831-P7.minimised.mol

>  <scratch_subdir>  (1288) 
/opt/xchem-fragalysis-2/maxwin/BulkDock/SCRATCH/511024/C64831-P7

>  <fragmenstein_runtime>  (1288) 
9.384287595748901

>  <fragmenstein_outcome>  (1288) 
too moved

>  <fragmenstein_mode>  (1288) 
expansion

>  <fragmenstein_error>  (1288) 


$$$$
C64835-P97
     RDKit          3D

 30 31  0  0  0  0  0  0  0  0999 V2000
    1.9726   -1.8165   27.5144 C   0  0  0  0  0  0  0  0  0  0  0  0
    3.1728   -2.1169   26.9771 C   0  0  0  0  0  0  0  0  0  0  0  0
    3.8067   -1.6676   25.6336 C   0  0  0  0  0  0  0  0  0  0  0  0
    4.3395   -2.7421   24.7677 O   0  0  0  0  0  0  0  0  0  0  0  0
    5.9592   -2.5771   24.1950 C   0  0  0  0  0  0  0  0  0  0  0  0
    7.2164   -3.9567   23.4180 C   0  0  0  0  0  0  0  0  0  0  0  0
    7.8250   -4.3882   21.7496 N   0  0  0  0  0  0  0  0  0  0  0  0
    7.4719   -3.1938   21.3053 C   0  0  0  0  0  0  0  0  0  0  0  0
    8.2861   -3.9269   20.5720 C   0  0  0  0  0  0  0  0  0  0  0  0
    9.6693   -3.4023   20.4543 C   0  0  0  0  0  0  0  0  0  0  0  0
   11.5894   -3.6053   20.6917 C   0  0  0  0  0  0  0  0  0  0  0  0
   12.6887   -4.3634   20.4114 C   0  0  0  0  0  0  0  0  0  0  0  0
   12.0488   -5.4929   20.2884 C   0  0  0  0  0  0  0  0  0  0  0  0
   10.4526   -5.5396   20.1379 C   0  0  0  0  0  0  0  0  0  0  0  0
    9.1258   -4.4785   20.3111 C   0  0  0  0  0  0  0  0  0  0  0  0
    1.2647   -1.1960   26.9826 H   0  0  0  0  0  0  0  0  0  0  0  0
    1.6936   -2.1919   28.4915 H   0  0  0  0  0  0  0  0  0  0  0  0
    3.8643   -2.6990   27.5764 H   0  0  0  0  0  0  0  0  0  0  0  0
    4.6288   -0.9822   25.8624 H   0  0  0  0  0  0  0  0  0  0  0  0
    3.0710   -1.1230   25.0488 H   0  0  0  0  0  0  0  0  0  0  0  0
    5.6151   -1.9331   23.3928 H   0  0  0  0  0  0  0  0  0  0  0  0
    6.4644   -2.0623   25.0236 H   0  0  0  0  0  0  0  0  0  0  0  0
    8.1901   -3.7581   23.8622 H   0  0  0  0  0  0  0  0  0  0  0  0
    6.8211   -4.9638   23.5119 H   0  0  0  0  0  0  0  0  0  0  0  0
    6.4072   -2.8099   21.1515 H   0  0  0  0  0  0  0  0  0  0  0  0
    7.3635   -4.5419   19.8363 H   0  0  0  0  0  0  0  0  0  0  0  0
   11.7816   -3.5400   21.8399 H   0  0  0  0  0  0  0  0  0  0  0  0
   13.6781   -4.2405   20.8150 H   0  0  0  0  0  0  0  0  0  0  0  0
   12.5598   -6.3657   20.6764 H   0  0  0  0  0  0  0  0  0  0  0  0
   10.0213   -6.3976   20.4756 H   0  0  0  0  0  0  0  0  0  0  0  0
  1  2  2  0
  2  3  1  0
  3  4  1  0
  4  5  1  0
  5  6  1  0
  6  7  1  0
  7  8  1  0
  8  9  2  0
  9 10  1  0
 10 11  2  0
 11 12  1  0
 12 13  2  0
 13 14  1  0
 14 15  2  0
 15  7  1  0
 15 10  1  0
  1 16  1  0
  1 17  1  0
  2 18  1  0
  3 19  1  0
  3 20  1  0
  5 21  1  0
  5 22  1  0
  6 23  1  0
  6 24  1  0
  8 25  1  0
  9 26  1  0
 11 27  1  0
 12 28  1  0
 13 29  1  0
 14 30  1  0
M  END
>  <Energy>  (1289) 
895.91214691690948

>  <compound_id>  (1289) 
64835

>  <target_id>  (1289) 
1

>  <reference_id>  (1289) 
97

>  <inspiration_ids>  (1289) 
[97, 7]

>  <energy_score>  (1289) 
844.793106853859

>  <distance_score>  (1289) 
13.596820331032047

>  <path>  (1289) 
/opt/xchem-fragalysis-2/maxwin/BulkDock/SCRATCH/511024/C64835-P97/C64835-P97.minimised.mol

>  <scratch_subdir>  (1289) 
/opt/xchem-fragalysis-2/maxwin/BulkDock/SCRATCH/511024/C64835-P97

>  <fragmenstein_runtime>  (1289) 
5.931310176849365

>  <fragmenstein_outcome>  (1289) 
too moved

>  <fragmenstein_mode>  (1289) 
expansion

>  <fragmenstein_error>  (1289) 


$$$$
C64835-P7
     RDKit          3D

 30 31  0  0  0  0  0  0  0  0999 V2000
    1.3844   -2.1689   28.1628 C   0  0  0  0  0  0  0  0  0  0  0  0
    2.0396   -1.3948   27.2754 C   0  0  0  0  0  0  0  0  0  0  0  0
    3.4063   -1.6474   26.5880 C   0  0  0  0  0  0  0  0  0  0  0  0
    3.4463   -1.7492   25.1193 O   0  0  0  0  0  0  0  0  0  0  0  0
    4.6997   -1.2054   24.4219 C   0  0  0  0  0  0  0  0  0  0  0  0
    5.1783   -1.6683   22.5911 C   0  0  0  0  0  0  0  0  0  0  0  0
    6.5025   -1.4859   21.1121 N   0  0  0  0  0  0  0  0  0  0  0  0
    6.3208   -2.8404   20.9763 C   0  0  0  0  0  0  0  0  0  0  0  0
    7.7551   -3.5544   21.3826 C   0  0  0  0  0  0  0  0  0  0  0  0
    8.9666   -3.3948   20.3942 C   0  0  0  0  0  0  0  0  0  0  0  0
    9.7738   -4.9088   19.2506 C   0  0  0  0  0  0  0  0  0  0  0  0
   10.4955   -3.9248   17.4998 C   0  0  0  0  0  0  0  0  0  0  0  0
    9.6369   -2.0144   17.1156 C   0  0  0  0  0  0  0  0  0  0  0  0
    8.4127   -1.0556   18.6160 C   0  0  0  0  0  0  0  0  0  0  0  0
    8.2998   -1.4339   20.4528 C   0  0  0  0  0  0  0  0  0  0  0  0
    1.7834   -3.1358   28.4487 H   0  0  0  0  0  0  0  0  0  0  0  0
    0.4392   -1.8517   28.5860 H   0  0  0  0  0  0  0  0  0  0  0  0
    1.6105   -0.4280   27.0408 H   0  0  0  0  0  0  0  0  0  0  0  0
    3.8462   -2.5662   26.9813 H   0  0  0  0  0  0  0  0  0  0  0  0
    4.0617   -0.8181   26.8794 H   0  0  0  0  0  0  0  0  0  0  0  0
    5.5277   -1.5279   25.0723 H   0  0  0  0  0  0  0  0  0  0  0  0
    4.6716   -0.1221   24.5346 H   0  0  0  0  0  0  0  0  0  0  0  0
    5.7018   -2.1803   23.4116 H   0  0  0  0  0  0  0  0  0  0  0  0
    5.0363   -2.6721   22.3926 H   0  0  0  0  0  0  0  0  0  0  0  0
    5.4659   -3.2312   20.4302 H   0  0  0  0  0  0  0  0  0  0  0  0
    7.7129   -4.3530   22.1432 H   0  0  0  0  0  0  0  0  0  0  0  0
   10.4668   -5.4207   19.9663 H   0  0  0  0  0  0  0  0  0  0  0  0
   11.3131   -4.3132   16.8900 H   0  0  0  0  0  0  0  0  0  0  0  0
    9.8783   -1.4898   16.1696 H   0  0  0  0  0  0  0  0  0  0  0  0
    8.0003   -0.0417   18.3749 H   0  0  0  0  0  0  0  0  0  0  0  0
  1  2  2  0
  2  3  1  0
  3  4  1  0
  4  5  1  0
  5  6  1  0
  6  7  1  0
  7  8  1  0
  8  9  2  0
  9 10  1  0
 10 11  2  0
 11 12  1  0
 12 13  2  0
 13 14  1  0
 14 15  2  0
 15  7  1  0
 15 10  1  0
  1 16  1  0
  1 17  1  0
  2 18  1  0
  3 19  1  0
  3 20  1  0
  5 21  1  0
  5 22  1  0
  6 23  1  0
  6 24  1  0
  8 25  1  0
  9 26  1  0
 11 27  1  0
 12 28  1  0
 13 29  1  0
 14 30  1  0
M  END
>  <Energy>  (1290) 
1553.0971302723235

>  <compound_id>  (1290) 
64835

>  <target_id>  (1290) 
1

>  <reference_id>  (1290) 
7

>  <inspiration_ids>  (1290) 
[97, 7]

>  <energy_score>  (1290) 
1501.9780902092855

>  <distance_score>  (1290) 
13.18014026248957

>  <path>  (1290) 
/opt/xchem-fragalysis-2/maxwin/BulkDock/SCRATCH/511024/C64835-P7/C64835-P7.minimised.mol

>  <scratch_subdir>  (1290) 
/opt/xchem-fragalysis-2/maxwin/BulkDock/SCRATCH/511024/C64835-P7

>  <fragmenstein_runtime>  (1290) 
4.959794044494629

>  <fragmenstein_outcome>  (1290) 
too moved

>  <fragmenstein_mode>  (1290) 
expansion

>  <fragmenstein_error>  (1290) 


$$$$
C64836-P97
     RDKit          3D

 38 39  0  0  0  0  0  0  0  0999 V2000
   -0.7337   -1.8704   30.3715 C   0  0  0  0  0  0  0  0  0  0  0  0
    0.7340   -1.4854   30.0929 C   0  0  0  0  0  0  0  0  0  0  0  0
    1.2163   -1.3737   28.5627 C   0  0  0  0  0  0  0  0  0  0  0  0
    1.2959   -2.7800   27.9800 C   0  0  0  0  0  0  0  0  0  0  0  0
    0.1381   -0.5143   27.8783 C   0  0  0  0  0  0  0  0  0  0  0  0
    2.7211   -0.7573   28.4867 C   0  0  0  0  0  0  0  0  0  0  0  0
    3.4495   -1.0883   29.3975 O   0  0  0  0  0  0  0  0  0  0  0  0
    2.9425    0.1763   27.3975 N   0  0  0  0  0  0  0  0  0  0  0  0
    4.1201    1.1253   27.1115 C   0  0  0  0  0  0  0  0  0  0  0  0
    3.5779   -0.5829   26.0945 C   0  0  0  0  0  0  0  0  0  0  0  0
    3.1004   -0.1703   24.8287 C   0  0  0  0  0  0  0  0  0  0  0  0
    3.7041   -0.5333   23.6041 C   0  0  0  0  0  0  0  0  0  0  0  0
    4.8584   -1.3154   23.6486 C   0  0  0  0  0  0  0  0  0  0  0  0
    5.6412   -1.7990   22.6200 N   0  0  0  0  0  0  0  0  0  0  0  0
    6.6834   -2.5237   23.1298 C   0  0  0  0  0  0  0  0  0  0  0  0
    6.5715   -2.5047   24.5051 C   0  0  0  0  0  0  0  0  0  0  0  0
    5.3907   -1.7716   24.8571 C   0  0  0  0  0  0  0  0  0  0  0  0
    4.7193   -1.4401   26.0911 C   0  0  0  0  0  0  0  0  0  0  0  0
   -0.8800   -2.0090   31.4476 H   0  0  0  0  0  0  0  0  0  0  0  0
   -1.4226   -1.0867   30.0443 H   0  0  0  0  0  0  0  0  0  0  0  0
   -0.9971   -2.8060   29.8703 H   0  0  0  0  0  0  0  0  0  0  0  0
    1.3789   -2.2098   30.6075 H   0  0  0  0  0  0  0  0  0  0  0  0
    0.9269   -0.5200   30.5798 H   0  0  0  0  0  0  0  0  0  0  0  0
    0.3090   -3.2403   27.8823 H   0  0  0  0  0  0  0  0  0  0  0  0
    1.9032   -3.4334   28.6169 H   0  0  0  0  0  0  0  0  0  0  0  0
    1.7847   -2.7626   27.0063 H   0  0  0  0  0  0  0  0  0  0  0  0
   -0.8219   -1.0336   27.8014 H   0  0  0  0  0  0  0  0  0  0  0  0
   -0.0162    0.4252   28.4214 H   0  0  0  0  0  0  0  0  0  0  0  0
    0.4409   -0.2346   26.8676 H   0  0  0  0  0  0  0  0  0  0  0  0
    5.1059    0.7017   27.3450 H   0  0  0  0  0  0  0  0  0  0  0  0
    3.9982    1.8892   27.8935 H   0  0  0  0  0  0  0  0  0  0  0  0
    4.0480    1.6956   26.1766 H   0  0  0  0  0  0  0  0  0  0  0  0
    2.2349    0.4892   24.7952 H   0  0  0  0  0  0  0  0  0  0  0  0
    3.2785   -0.1954   22.6649 H   0  0  0  0  0  0  0  0  0  0  0  0
    5.4307   -1.6798   21.6384 H   0  0  0  0  0  0  0  0  0  0  0  0
    7.3760   -3.0284   22.4745 H   0  0  0  0  0  0  0  0  0  0  0  0
    7.2346   -3.0056   25.1984 H   0  0  0  0  0  0  0  0  0  0  0  0
    5.1471   -1.7738   27.0332 H   0  0  0  0  0  0  0  0  0  0  0  0
  1  2  1  0
  2  3  1  0
  3  4  1  0
  3  5  1  0
  3  6  1  0
  6  7  2  0
  6  8  1  0
  8  9  1  0
  8 10  1  0
 10 11  2  0
 11 12  1  0
 12 13  2  0
 13 14  1  0
 14 15  1  0
 15 16  2  0
 16 17  1  0
 17 18  2  0
 18 10  1  0
 17 13  1  0
  1 19  1  0
  1 20  1  0
  1 21  1  0
  2 22  1  0
  2 23  1  0
  4 24  1  0
  4 25  1  0
  4 26  1  0
  5 27  1  0
  5 28  1  0
  5 29  1  0
  9 30  1  0
  9 31  1  0
  9 32  1  0
 11 33  1  0
 12 34  1  0
 14 35  1  0
 15 36  1  0
 16 37  1  0
 18 38  1  0
M  END
>  <Energy>  (1291) 
114.20751244837858

>  <compound_id>  (1291) 
64836

>  <target_id>  (1291) 
1

>  <reference_id>  (1291) 
97

>  <inspiration_ids>  (1291) 
[97, 7]

>  <energy_score>  (1291) 
38.33071522243975

>  <distance_score>  (1291) 
14.011752933817212

>  <path>  (1291) 
/opt/xchem-fragalysis-2/maxwin/BulkDock/SCRATCH/511024/C64836-P97/C64836-P97.minimised.mol

>  <scratch_subdir>  (1291) 
/opt/xchem-fragalysis-2/maxwin/BulkDock/SCRATCH/511024/C64836-P97

>  <fragmenstein_runtime>  (1291) 
13.681928157806396

>  <fragmenstein_outcome>  (1291) 
too moved

>  <fragmenstein_mode>  (1291) 
expansion

>  <fragmenstein_error>  (1291) 


$$$$
C64836-P7
     RDKit          3D

 38 39  0  0  0  0  0  0  0  0999 V2000
    0.2561   -1.0866   30.7047 C   0  0  0  0  0  0  0  0  0  0  0  0
    1.2097   -0.2717   29.8101 C   0  0  0  0  0  0  0  0  0  0  0  0
    2.0637   -1.0281   28.6666 C   0  0  0  0  0  0  0  0  0  0  0  0
    3.2741   -1.7386   29.2724 C   0  0  0  0  0  0  0  0  0  0  0  0
    1.0881   -2.0598   28.0691 C   0  0  0  0  0  0  0  0  0  0  0  0
    2.5938    0.0913   27.6068 C   0  0  0  0  0  0  0  0  0  0  0  0
    2.8066    1.1834   28.0871 O   0  0  0  0  0  0  0  0  0  0  0  0
    2.6374   -0.3510   26.2329 N   0  0  0  0  0  0  0  0  0  0  0  0
    2.8555    0.4389   24.9270 C   0  0  0  0  0  0  0  0  0  0  0  0
    4.1251   -0.9005   25.8425 C   0  0  0  0  0  0  0  0  0  0  0  0
    4.1889   -2.0945   25.0881 C   0  0  0  0  0  0  0  0  0  0  0  0
    5.3023   -2.4668   24.3042 C   0  0  0  0  0  0  0  0  0  0  0  0
    6.3881   -1.5917   24.2659 C   0  0  0  0  0  0  0  0  0  0  0  0
    7.5581   -1.6586   23.5393 N   0  0  0  0  0  0  0  0  0  0  0  0
    8.3417   -0.5702   23.8101 C   0  0  0  0  0  0  0  0  0  0  0  0
    7.6705    0.2060   24.7307 C   0  0  0  0  0  0  0  0  0  0  0  0
    6.4315   -0.4345   25.0446 C   0  0  0  0  0  0  0  0  0  0  0  0
    5.3182   -0.1191   25.8939 C   0  0  0  0  0  0  0  0  0  0  0  0
    0.7833   -1.9184   31.1804 H   0  0  0  0  0  0  0  0  0  0  0  0
   -0.5902   -1.4796   30.1339 H   0  0  0  0  0  0  0  0  0  0  0  0
   -0.1491   -0.4446   31.4936 H   0  0  0  0  0  0  0  0  0  0  0  0
    1.9156    0.2626   30.4595 H   0  0  0  0  0  0  0  0  0  0  0  0
    0.6037    0.5039   29.3223 H   0  0  0  0  0  0  0  0  0  0  0  0
    3.9730   -1.0180   29.7110 H   0  0  0  0  0  0  0  0  0  0  0  0
    3.8237   -2.3011   28.5104 H   0  0  0  0  0  0  0  0  0  0  0  0
    2.9770   -2.4414   30.0578 H   0  0  0  0  0  0  0  0  0  0  0  0
    0.1977   -1.5679   27.6690 H   0  0  0  0  0  0  0  0  0  0  0  0
    0.7782   -2.8153   28.7982 H   0  0  0  0  0  0  0  0  0  0  0  0
    1.5812   -2.6057   27.2627 H   0  0  0  0  0  0  0  0  0  0  0  0
    1.8931    0.9579   24.8077 H   0  0  0  0  0  0  0  0  0  0  0  0
    3.5485    1.2844   25.0232 H   0  0  0  0  0  0  0  0  0  0  0  0
    2.9427   -0.1623   24.0124 H   0  0  0  0  0  0  0  0  0  0  0  0
    3.3098   -2.7273   25.0414 H   0  0  0  0  0  0  0  0  0  0  0  0
    5.2721   -3.3729   23.7074 H   0  0  0  0  0  0  0  0  0  0  0  0
    7.7922   -2.4324   22.9337 H   0  0  0  0  0  0  0  0  0  0  0  0
    9.3197   -0.4410   23.3713 H   0  0  0  0  0  0  0  0  0  0  0  0
    8.0325    1.1340   25.1551 H   0  0  0  0  0  0  0  0  0  0  0  0
    5.3309    0.8122   26.4565 H   0  0  0  0  0  0  0  0  0  0  0  0
  1  2  1  0
  2  3  1  0
  3  4  1  0
  3  5  1  0
  3  6  1  0
  6  7  2  0
  6  8  1  0
  8  9  1  0
  8 10  1  0
 10 11  2  0
 11 12  1  0
 12 13  2  0
 13 14  1  0
 14 15  1  0
 15 16  2  0
 16 17  1  0
 17 18  2  0
 18 10  1  0
 17 13  1  0
  1 19  1  0
  1 20  1  0
  1 21  1  0
  2 22  1  0
  2 23  1  0
  4 24  1  0
  4 25  1  0
  4 26  1  0
  5 27  1  0
  5 28  1  0
  5 29  1  0
  9 30  1  0
  9 31  1  0
  9 32  1  0
 11 33  1  0
 12 34  1  0
 14 35  1  0
 15 36  1  0
 16 37  1  0
 18 38  1  0
M  END
>  <Energy>  (1292) 
117.78756946971392

>  <compound_id>  (1292) 
64836

>  <target_id>  (1292) 
1

>  <reference_id>  (1292) 
7

>  <inspiration_ids>  (1292) 
[97, 7]

>  <energy_score>  (1292) 
41.910772243775284

>  <distance_score>  (1292) 
14.007216820309749

>  <path>  (1292) 
/opt/xchem-fragalysis-2/maxwin/BulkDock/SCRATCH/511024/C64836-P7/C64836-P7.minimised.mol

>  <scratch_subdir>  (1292) 
/opt/xchem-fragalysis-2/maxwin/BulkDock/SCRATCH/511024/C64836-P7

>  <fragmenstein_runtime>  (1292) 
10.340971946716309

>  <fragmenstein_outcome>  (1292) 
too moved

>  <fragmenstein_mode>  (1292) 
expansion

>  <fragmenstein_error>  (1292) 


$$$$
C64841-P97
     RDKit          3D

 35 36  0  0  0  0  0  0  0  0999 V2000
    8.7293   -1.0406   19.6058 C   0  0  0  0  0  0  0  0  0  0  0  0
    8.6416   -2.1867   18.7922 C   0  0  0  0  0  0  0  0  0  0  0  0
    7.5648   -4.2333   18.6989 N   0  0  0  0  0  0  0  0  0  0  0  0
    5.7891   -4.5761   19.1431 C   0  0  0  0  0  0  0  0  0  0  0  0
    4.8757   -3.8017   19.4232 O   0  0  0  0  0  0  0  0  0  0  0  0
    5.2959   -6.0598   19.3380 C   0  0  0  0  0  0  0  0  0  0  0  0
    5.6854   -6.7121   20.6815 C   0  0  0  0  0  0  0  0  0  0  0  0
    3.6114   -5.8302   19.7806 C   0  0  0  0  0  0  0  0  0  0  0  0
    3.3696   -5.0492   20.8832 F   0  0  0  0  0  0  0  0  0  0  0  0
    2.9903   -7.0069   20.1126 F   0  0  0  0  0  0  0  0  0  0  0  0
    2.9166   -5.3371   18.7248 F   0  0  0  0  0  0  0  0  0  0  0  0
    7.7926   -4.0845   16.4518 C   0  0  0  0  0  0  0  0  0  0  0  0
    7.3033   -2.8112   15.4407 C   0  0  0  0  0  0  0  0  0  0  0  0
    7.8813   -1.5858   14.9495 C   0  0  0  0  0  0  0  0  0  0  0  0
    9.2463   -1.4163   15.0651 C   0  0  0  0  0  0  0  0  0  0  0  0
   10.0912   -0.3528   14.8607 N   0  0  0  0  0  0  0  0  0  0  0  0
   11.3963   -0.7827   14.8921 C   0  0  0  0  0  0  0  0  0  0  0  0
   11.3825   -2.1591   14.9846 C   0  0  0  0  0  0  0  0  0  0  0  0
   10.0137   -2.5689   15.0677 C   0  0  0  0  0  0  0  0  0  0  0  0
    9.2870   -3.8892   15.3258 C   0  0  0  0  0  0  0  0  0  0  0  0
    9.5843   -0.5223   19.3834 H   0  0  0  0  0  0  0  0  0  0  0  0
    8.9660   -0.4861   20.6548 H   0  0  0  0  0  0  0  0  0  0  0  0
    7.7530   -1.1064   20.5809 H   0  0  0  0  0  0  0  0  0  0  0  0
    7.4556   -1.2977   19.0694 H   0  0  0  0  0  0  0  0  0  0  0  0
    8.8381   -1.7783   17.3468 H   0  0  0  0  0  0  0  0  0  0  0  0
    5.3534   -6.6812   18.4449 H   0  0  0  0  0  0  0  0  0  0  0  0
    6.1342   -5.9842   21.3639 H   0  0  0  0  0  0  0  0  0  0  0  0
    6.3844   -7.5266   20.4786 H   0  0  0  0  0  0  0  0  0  0  0  0
    4.8680   -7.2000   21.2206 H   0  0  0  0  0  0  0  0  0  0  0  0
    6.2944   -2.9400   14.9879 H   0  0  0  0  0  0  0  0  0  0  0  0
    7.2819   -0.9075   14.3739 H   0  0  0  0  0  0  0  0  0  0  0  0
    9.7842    0.5850   14.6445 H   0  0  0  0  0  0  0  0  0  0  0  0
   12.2128   -0.0829   14.7784 H   0  0  0  0  0  0  0  0  0  0  0  0
   12.2521   -2.8022   14.9996 H   0  0  0  0  0  0  0  0  0  0  0  0
   10.2820   -4.3280   15.5788 H   0  0  0  0  0  0  0  0  0  0  0  0
  1  2  1  0
  2  3  1  0
  3  4  1  0
  4  5  2  0
  4  6  1  0
  6  7  1  0
  6  8  1  0
  8  9  1  0
  8 10  1  0
  8 11  1  0
  3 12  1  0
 12 13  2  0
 13 14  1  0
 14 15  2  0
 15 16  1  0
 16 17  1  0
 17 18  2  0
 18 19  1  0
 19 20  2  0
 20 12  1  0
 19 15  1  0
  1 21  1  0
  1 22  1  0
  1 23  1  0
  2 24  1  0
  2 25  1  0
  6 26  1  0
  7 27  1  0
  7 28  1  0
  7 29  1  0
 13 30  1  0
 14 31  1  0
 16 32  1  0
 17 33  1  0
 18 34  1  0
 20 35  1  0
M  END
>  <Energy>  (1293) 
1168.2552125291654

>  <compound_id>  (1293) 
64841

>  <target_id>  (1293) 
1

>  <reference_id>  (1293) 
97

>  <inspiration_ids>  (1293) 
[97, 7]

>  <energy_score>  (1293) 
1132.5295122414564

>  <distance_score>  (1293) 
15.753467519039324

>  <path>  (1293) 
/opt/xchem-fragalysis-2/maxwin/BulkDock/SCRATCH/511024/C64841-P97/C64841-P97.minimised.mol

>  <scratch_subdir>  (1293) 
/opt/xchem-fragalysis-2/maxwin/BulkDock/SCRATCH/511024/C64841-P97

>  <fragmenstein_runtime>  (1293) 
8.846051454544067

>  <fragmenstein_outcome>  (1293) 
too moved

>  <fragmenstein_mode>  (1293) 
expansion

>  <fragmenstein_error>  (1293) 


$$$$
C64841-P7
     RDKit          3D

 35 36  0  0  0  0  0  0  0  0999 V2000
    3.4536    1.9962   28.0165 C   0  0  0  0  0  0  0  0  0  0  0  0
    3.7679    0.4999   28.0285 C   0  0  0  0  0  0  0  0  0  0  0  0
    2.4701   -0.4003   28.0815 N   0  0  0  0  0  0  0  0  0  0  0  0
    1.0477   -0.0337   28.0459 C   0  0  0  0  0  0  0  0  0  0  0  0
    0.5202    1.0417   27.8771 O   0  0  0  0  0  0  0  0  0  0  0  0
    0.0807   -1.2395   28.3957 C   0  0  0  0  0  0  0  0  0  0  0  0
    0.4879   -1.9641   29.6922 C   0  0  0  0  0  0  0  0  0  0  0  0
   -1.3884   -0.7754   28.6725 C   0  0  0  0  0  0  0  0  0  0  0  0
   -2.1843   -1.8286   29.0314 F   0  0  0  0  0  0  0  0  0  0  0  0
   -1.5075    0.0915   29.7122 F   0  0  0  0  0  0  0  0  0  0  0  0
   -1.9602   -0.2137   27.5850 F   0  0  0  0  0  0  0  0  0  0  0  0
    3.0043   -0.8090   26.5896 C   0  0  0  0  0  0  0  0  0  0  0  0
    3.8326   -1.9520   26.5016 C   0  0  0  0  0  0  0  0  0  0  0  0
    4.5748   -2.2933   25.3402 C   0  0  0  0  0  0  0  0  0  0  0  0
    4.5150   -1.4362   24.2352 C   0  0  0  0  0  0  0  0  0  0  0  0
    5.1105   -1.5285   22.9923 N   0  0  0  0  0  0  0  0  0  0  0  0
    4.8330   -0.4135   22.2473 C   0  0  0  0  0  0  0  0  0  0  0  0
    3.9748    0.3695   22.9928 C   0  0  0  0  0  0  0  0  0  0  0  0
    3.7356   -0.2794   24.2505 C   0  0  0  0  0  0  0  0  0  0  0  0
    2.9411    0.0111   25.4197 C   0  0  0  0  0  0  0  0  0  0  0  0
    2.7973    2.2637   28.8512 H   0  0  0  0  0  0  0  0  0  0  0  0
    2.9680    2.3121   27.0908 H   0  0  0  0  0  0  0  0  0  0  0  0
    4.3785    2.5719   28.1254 H   0  0  0  0  0  0  0  0  0  0  0  0
    4.6392    0.2544   27.3997 H   0  0  0  0  0  0  0  0  0  0  0  0
    4.1735    0.3068   29.0346 H   0  0  0  0  0  0  0  0  0  0  0  0
    0.1036   -1.9471   27.5692 H   0  0  0  0  0  0  0  0  0  0  0  0
    1.4884   -2.3982   29.5913 H   0  0  0  0  0  0  0  0  0  0  0  0
    0.5181   -1.2723   30.5411 H   0  0  0  0  0  0  0  0  0  0  0  0
   -0.1975   -2.7840   29.9304 H   0  0  0  0  0  0  0  0  0  0  0  0
    3.9319   -2.5806   27.3836 H   0  0  0  0  0  0  0  0  0  0  0  0
    5.1884   -3.1885   25.3282 H   0  0  0  0  0  0  0  0  0  0  0  0
    5.6498   -2.3242   22.6831 H   0  0  0  0  0  0  0  0  0  0  0  0
    5.2243   -0.2956   21.2469 H   0  0  0  0  0  0  0  0  0  0  0  0
    3.5359    1.3050   22.6711 H   0  0  0  0  0  0  0  0  0  0  0  0
    2.3375    0.9144   25.4247 H   0  0  0  0  0  0  0  0  0  0  0  0
  1  2  1  0
  2  3  1  0
  3  4  1  0
  4  5  2  0
  4  6  1  0
  6  7  1  0
  6  8  1  0
  8  9  1  0
  8 10  1  0
  8 11  1  0
  3 12  1  0
 12 13  2  0
 13 14  1  0
 14 15  2  0
 15 16  1  0
 16 17  1  0
 17 18  2  0
 18 19  1  0
 19 20  2  0
 20 12  1  0
 19 15  1  0
  1 21  1  0
  1 22  1  0
  1 23  1  0
  2 24  1  0
  2 25  1  0
  6 26  1  0
  7 27  1  0
  7 28  1  0
  7 29  1  0
 13 30  1  0
 14 31  1  0
 16 32  1  0
 17 33  1  0
 18 34  1  0
 20 35  1  0
M  END
>  <Energy>  (1294) 
84.305423129876203

>  <compound_id>  (1294) 
64841

>  <target_id>  (1294) 
1

>  <reference_id>  (1294) 
7

>  <inspiration_ids>  (1294) 
[97, 7]

>  <energy_score>  (1294) 
48.57972284216791

>  <distance_score>  (1294) 
14.059344766999939

>  <path>  (1294) 
/opt/xchem-fragalysis-2/maxwin/BulkDock/SCRATCH/511024/C64841-P7/C64841-P7.minimised.mol

>  <scratch_subdir>  (1294) 
/opt/xchem-fragalysis-2/maxwin/BulkDock/SCRATCH/511024/C64841-P7

>  <fragmenstein_runtime>  (1294) 
8.002711296081543

>  <fragmenstein_outcome>  (1294) 
too moved

>  <fragmenstein_mode>  (1294) 
expansion

>  <fragmenstein_error>  (1294) 


$$$$
C30247-P97
     RDKit          3D

 40 42  0  0  0  0  0  0  0  0999 V2000
    4.9728    0.3496   26.0796 C   0  0  0  0  0  0  0  0  0  0  0  0
    4.8664   -1.1029   25.6840 C   0  0  0  0  0  0  0  0  0  0  0  0
    3.4077   -1.6290   25.8244 C   0  0  0  0  0  0  0  0  0  0  0  0
    2.4818   -1.2785   26.9226 N   0  0  0  0  0  0  0  0  0  0  0  0
    1.8430   -2.1027   27.9208 C   0  0  0  0  0  0  0  0  0  0  0  0
    1.9641   -3.2696   28.1645 O   0  0  0  0  0  0  0  0  0  0  0  0
    0.7696   -1.3739   28.7175 C   0  0  0  0  0  0  0  0  0  0  0  0
   -0.0663   -1.9627   29.7350 C   0  0  0  0  0  0  0  0  0  0  0  0
   -0.9862   -1.0070   30.0938 C   0  0  0  0  0  0  0  0  0  0  0  0
   -0.6920    0.0728   29.3195 N   0  0  0  0  0  0  0  0  0  0  0  0
    0.3671   -0.1031   28.4940 N   0  0  0  0  0  0  0  0  0  0  0  0
    5.4782   -1.5014   24.3399 N   0  0  0  0  0  0  0  0  0  0  0  0
    6.8592   -1.7340   23.9536 C   0  0  0  0  0  0  0  0  0  0  0  0
    7.8792   -1.5921   24.5734 O   0  0  0  0  0  0  0  0  0  0  0  0
    7.1638   -2.3752   22.5693 C   0  0  0  0  0  0  0  0  0  0  0  0
    6.7837   -2.8148   21.4417 C   0  0  0  0  0  0  0  0  0  0  0  0
    7.6477   -4.2287   20.6192 C   0  0  0  0  0  0  0  0  0  0  0  0
    8.8971   -4.2661   20.0114 C   0  0  0  0  0  0  0  0  0  0  0  0
   10.1484   -5.5011   19.9732 N   0  0  0  0  0  0  0  0  0  0  0  0
   11.7152   -5.0873   20.3618 C   0  0  0  0  0  0  0  0  0  0  0  0
   11.5231   -3.7569   20.7283 C   0  0  0  0  0  0  0  0  0  0  0  0
    9.4637   -3.4405   20.6906 C   0  0  0  0  0  0  0  0  0  0  0  0
    8.2952   -2.9946   22.2020 C   0  0  0  0  0  0  0  0  0  0  0  0
    5.9032    0.7983   25.7228 H   0  0  0  0  0  0  0  0  0  0  0  0
    4.9673    0.4434   27.1727 H   0  0  0  0  0  0  0  0  0  0  0  0
    4.0933    0.8980   25.7392 H   0  0  0  0  0  0  0  0  0  0  0  0
    5.4879   -1.5966   26.4356 H   0  0  0  0  0  0  0  0  0  0  0  0
    3.4225   -2.7165   25.7641 H   0  0  0  0  0  0  0  0  0  0  0  0
    2.8928   -1.2925   24.9299 H   0  0  0  0  0  0  0  0  0  0  0  0
    2.0744   -0.3489   26.9517 H   0  0  0  0  0  0  0  0  0  0  0  0
    0.0083   -2.9759   30.1058 H   0  0  0  0  0  0  0  0  0  0  0  0
   -1.8041   -1.0042   30.7986 H   0  0  0  0  0  0  0  0  0  0  0  0
   -1.1664    0.9695   29.2951 H   0  0  0  0  0  0  0  0  0  0  0  0
    4.8795   -1.6475   23.5337 H   0  0  0  0  0  0  0  0  0  0  0  0
    5.7668   -2.5903   21.0735 H   0  0  0  0  0  0  0  0  0  0  0  0
    6.8984   -4.7198   19.8688 H   0  0  0  0  0  0  0  0  0  0  0  0
   10.1572   -5.5791   18.9917 H   0  0  0  0  0  0  0  0  0  0  0  0
   12.4258   -5.8806   20.5091 H   0  0  0  0  0  0  0  0  0  0  0  0
   12.1008   -3.5691   21.6442 H   0  0  0  0  0  0  0  0  0  0  0  0
    8.8002   -2.9266   23.2392 H   0  0  0  0  0  0  0  0  0  0  0  0
  1  2  1  0
  2  3  1  0
  3  4  1  0
  4  5  1  0
  5  6  2  0
  5  7  1  0
  7  8  1  0
  8  9  2  0
  9 10  1  0
 10 11  1  0
  2 12  1  0
 12 13  1  0
 13 14  2  0
 13 15  1  0
 15 16  2  0
 16 17  1  0
 17 18  2  0
 18 19  1  0
 19 20  1  0
 20 21  2  0
 21 22  1  0
 22 23  2  0
 11  7  2  0
 23 15  1  0
 22 18  1  0
  1 24  1  0
  1 25  1  0
  1 26  1  0
  2 27  1  0
  3 28  1  0
  3 29  1  0
  4 30  1  0
  8 31  1  0
  9 32  1  0
 10 33  1  0
 12 34  1  0
 16 35  1  0
 17 36  1  0
 19 37  1  0
 20 38  1  0
 21 39  1  0
 23 40  1  0
M  END
>  <Energy>  (1295) 
579.71282753644243

>  <compound_id>  (1295) 
30247

>  <target_id>  (1295) 
1

>  <reference_id>  (1295) 
97

>  <inspiration_ids>  (1295) 
[97, 7]

>  <energy_score>  (1295) 
501.4581389359514

>  <distance_score>  (1295) 
10.814468923851777

>  <path>  (1295) 
/opt/xchem-fragalysis-2/maxwin/BulkDock/SCRATCH/511024/C30247-P97/C30247-P97.minimised.mol

>  <scratch_subdir>  (1295) 
/opt/xchem-fragalysis-2/maxwin/BulkDock/SCRATCH/511024/C30247-P97

>  <fragmenstein_runtime>  (1295) 
19.97601056098938

>  <fragmenstein_outcome>  (1295) 
too moved

>  <fragmenstein_mode>  (1295) 
expansion

>  <fragmenstein_error>  (1295) 


$$$$
C30247-P7
     RDKit          3D

 40 42  0  0  0  0  0  0  0  0999 V2000
    7.3246   -0.9671   21.5561 C   0  0  0  0  0  0  0  0  0  0  0  0
    7.0821   -2.4299   22.0136 C   0  0  0  0  0  0  0  0  0  0  0  0
    7.2405   -2.4470   23.5986 C   0  0  0  0  0  0  0  0  0  0  0  0
    6.3652   -1.6154   24.5441 N   0  0  0  0  0  0  0  0  0  0  0  0
    4.9339   -1.7178   24.8730 C   0  0  0  0  0  0  0  0  0  0  0  0
    4.0804   -2.4248   24.4214 O   0  0  0  0  0  0  0  0  0  0  0  0
    4.4293   -0.8801   26.0487 C   0  0  0  0  0  0  0  0  0  0  0  0
    3.1706   -1.1360   26.7300 C   0  0  0  0  0  0  0  0  0  0  0  0
    3.0609   -0.2259   27.7482 C   0  0  0  0  0  0  0  0  0  0  0  0
    4.2063    0.5011   27.6697 N   0  0  0  0  0  0  0  0  0  0  0  0
    5.0734    0.1106   26.6990 N   0  0  0  0  0  0  0  0  0  0  0  0
    7.7733   -3.7699   21.0693 N   0  0  0  0  0  0  0  0  0  0  0  0
    7.0112   -4.8313   19.8433 C   0  0  0  0  0  0  0  0  0  0  0  0
    5.9005   -4.7459   19.3968 O   0  0  0  0  0  0  0  0  0  0  0  0
    7.8233   -6.3132   19.1881 C   0  0  0  0  0  0  0  0  0  0  0  0
    9.5518   -6.2218   19.0840 C   0  0  0  0  0  0  0  0  0  0  0  0
   11.0145   -5.2775   18.1660 C   0  0  0  0  0  0  0  0  0  0  0  0
   12.3046   -4.6706   18.4387 C   0  0  0  0  0  0  0  0  0  0  0  0
   13.1605   -3.9484   17.6322 N   0  0  0  0  0  0  0  0  0  0  0  0
   12.5712   -3.4127   16.5123 C   0  0  0  0  0  0  0  0  0  0  0  0
   11.2290   -3.7193   16.5286 C   0  0  0  0  0  0  0  0  0  0  0  0
   10.9111   -4.6330   18.0064 C   0  0  0  0  0  0  0  0  0  0  0  0
    9.6535   -5.4390   19.3772 C   0  0  0  0  0  0  0  0  0  0  0  0
    8.1822   -0.5124   22.0579 H   0  0  0  0  0  0  0  0  0  0  0  0
    6.4662   -0.3588   21.8723 H   0  0  0  0  0  0  0  0  0  0  0  0
    7.4203   -0.8048   20.4830 H   0  0  0  0  0  0  0  0  0  0  0  0
    6.0169   -2.5419   21.7894 H   0  0  0  0  0  0  0  0  0  0  0  0
    7.1589   -3.4821   23.9327 H   0  0  0  0  0  0  0  0  0  0  0  0
    8.2649   -2.1378   23.8378 H   0  0  0  0  0  0  0  0  0  0  0  0
    6.8070   -0.9650   25.1854 H   0  0  0  0  0  0  0  0  0  0  0  0
    2.4701   -1.9141   26.4693 H   0  0  0  0  0  0  0  0  0  0  0  0
    2.3010   -0.0423   28.4923 H   0  0  0  0  0  0  0  0  0  0  0  0
    4.4857    1.2773   28.2584 H   0  0  0  0  0  0  0  0  0  0  0  0
    8.6705   -4.1234   21.3090 H   0  0  0  0  0  0  0  0  0  0  0  0
    9.6887   -7.4573   19.7566 H   0  0  0  0  0  0  0  0  0  0  0  0
   11.0875   -5.7884   16.7796 H   0  0  0  0  0  0  0  0  0  0  0  0
   14.1246   -3.7834   17.8828 H   0  0  0  0  0  0  0  0  0  0  0  0
   13.1615   -2.8585   15.7949 H   0  0  0  0  0  0  0  0  0  0  0  0
   10.5191   -3.4920   15.7450 H   0  0  0  0  0  0  0  0  0  0  0  0
   10.2999   -5.3037   20.4099 H   0  0  0  0  0  0  0  0  0  0  0  0
  1  2  1  0
  2  3  1  0
  3  4  1  0
  4  5  1  0
  5  6  2  0
  5  7  1  0
  7  8  1  0
  8  9  2  0
  9 10  1  0
 10 11  1  0
  2 12  1  0
 12 13  1  0
 13 14  2  0
 13 15  1  0
 15 16  2  0
 16 17  1  0
 17 18  2  0
 18 19  1  0
 19 20  1  0
 20 21  2  0
 21 22  1  0
 22 23  2  0
 11  7  2  0
 23 15  1  0
 22 18  1  0
  1 24  1  0
  1 25  1  0
  1 26  1  0
  2 27  1  0
  3 28  1  0
  3 29  1  0
  4 30  1  0
  8 31  1  0
  9 32  1  0
 10 33  1  0
 12 34  1  0
 16 35  1  0
 17 36  1  0
 19 37  1  0
 20 38  1  0
 21 39  1  0
 23 40  1  0
M  END
>  <Energy>  (1296) 
1453.7674198207808

>  <compound_id>  (1296) 
30247

>  <target_id>  (1296) 
1

>  <reference_id>  (1296) 
7

>  <inspiration_ids>  (1296) 
[97, 7]

>  <energy_score>  (1296) 
1375.5127312202947

>  <distance_score>  (1296) 
12.497704900845083

>  <path>  (1296) 
/opt/xchem-fragalysis-2/maxwin/BulkDock/SCRATCH/511024/C30247-P7/C30247-P7.minimised.mol

>  <scratch_subdir>  (1296) 
/opt/xchem-fragalysis-2/maxwin/BulkDock/SCRATCH/511024/C30247-P7

>  <fragmenstein_runtime>  (1296) 
13.664493799209595

>  <fragmenstein_outcome>  (1296) 
too moved

>  <fragmenstein_mode>  (1296) 
expansion

>  <fragmenstein_error>  (1296) 


$$$$
C30248-P97
     RDKit          3D

 40 42  0  0  0  0  0  0  0  0999 V2000
    7.6052   -0.3704   24.7287 C   0  0  0  0  0  0  0  0  0  0  0  0
    6.5468   -1.3830   24.2922 C   0  0  0  0  0  0  0  0  0  0  0  0
    6.3698   -1.3736   22.7358 C   0  0  0  0  0  0  0  0  0  0  0  0
    7.4906   -1.9107   21.8968 N   0  0  0  0  0  0  0  0  0  0  0  0
    8.0499   -3.4323   21.6996 C   0  0  0  0  0  0  0  0  0  0  0  0
    7.6837   -4.4217   22.2917 O   0  0  0  0  0  0  0  0  0  0  0  0
    9.5685   -3.8257   20.4211 C   0  0  0  0  0  0  0  0  0  0  0  0
   10.7609   -5.2967   20.3140 C   0  0  0  0  0  0  0  0  0  0  0  0
   12.3765   -5.6540   19.9365 C   0  0  0  0  0  0  0  0  0  0  0  0
   13.2994   -4.7252   19.5259 C   0  0  0  0  0  0  0  0  0  0  0  0
   14.6240   -4.7238   19.2077 N   0  0  0  0  0  0  0  0  0  0  0  0
   15.1828   -3.5464   19.6376 C   0  0  0  0  0  0  0  0  0  0  0  0
   14.2095   -2.8657   20.3374 C   0  0  0  0  0  0  0  0  0  0  0  0
   12.9734   -3.5568   20.1389 C   0  0  0  0  0  0  0  0  0  0  0  0
   11.4619   -3.4861   20.6602 C   0  0  0  0  0  0  0  0  0  0  0  0
    5.2875   -1.2775   25.0977 N   0  0  0  0  0  0  0  0  0  0  0  0
    4.7684   -0.1994   25.9161 C   0  0  0  0  0  0  0  0  0  0  0  0
    5.1784    0.9160   26.0934 O   0  0  0  0  0  0  0  0  0  0  0  0
    3.5063   -0.5848   26.7042 C   0  0  0  0  0  0  0  0  0  0  0  0
    2.6594    0.3089   27.4632 C   0  0  0  0  0  0  0  0  0  0  0  0
    1.6209   -0.4469   27.9600 C   0  0  0  0  0  0  0  0  0  0  0  0
    1.8544   -1.7045   27.4947 N   0  0  0  0  0  0  0  0  0  0  0  0
    3.0292   -1.8418   26.8403 N   0  0  0  0  0  0  0  0  0  0  0  0
    7.3059    0.6541   24.4907 H   0  0  0  0  0  0  0  0  0  0  0  0
    7.7782   -0.4287   25.8087 H   0  0  0  0  0  0  0  0  0  0  0  0
    8.5598   -0.5634   24.2279 H   0  0  0  0  0  0  0  0  0  0  0  0
    6.9578   -2.3668   24.5339 H   0  0  0  0  0  0  0  0  0  0  0  0
    6.2307   -0.3405   22.3997 H   0  0  0  0  0  0  0  0  0  0  0  0
    5.4677   -1.8995   22.4302 H   0  0  0  0  0  0  0  0  0  0  0  0
    8.0275   -1.2926   21.3424 H   0  0  0  0  0  0  0  0  0  0  0  0
   11.5753   -5.1762   21.2931 H   0  0  0  0  0  0  0  0  0  0  0  0
   12.7869   -6.3741   20.6793 H   0  0  0  0  0  0  0  0  0  0  0  0
   15.1496   -5.5066   18.8425 H   0  0  0  0  0  0  0  0  0  0  0  0
   16.2372   -3.3474   19.4998 H   0  0  0  0  0  0  0  0  0  0  0  0
   14.3565   -1.9454   20.8879 H   0  0  0  0  0  0  0  0  0  0  0  0
   11.7488   -3.5032   21.8038 H   0  0  0  0  0  0  0  0  0  0  0  0
    4.7238   -2.1166   25.2556 H   0  0  0  0  0  0  0  0  0  0  0  0
    2.8074    1.3738   27.5749 H   0  0  0  0  0  0  0  0  0  0  0  0
    0.7436   -0.2003   28.5386 H   0  0  0  0  0  0  0  0  0  0  0  0
    1.2580   -2.5212   27.5667 H   0  0  0  0  0  0  0  0  0  0  0  0
  1  2  1  0
  2  3  1  0
  3  4  1  0
  4  5  1  0
  5  6  2  0
  5  7  1  0
  7  8  2  0
  8  9  1  0
  9 10  2  0
 10 11  1  0
 11 12  1  0
 12 13  2  0
 13 14  1  0
 14 15  2  0
  2 16  1  0
 16 17  1  0
 17 18  2  0
 17 19  1  0
 19 20  1  0
 20 21  2  0
 21 22  1  0
 22 23  1  0
 15  7  1  0
 23 19  2  0
 14 10  1  0
  1 24  1  0
  1 25  1  0
  1 26  1  0
  2 27  1  0
  3 28  1  0
  3 29  1  0
  4 30  1  0
  8 31  1  0
  9 32  1  0
 11 33  1  0
 12 34  1  0
 13 35  1  0
 15 36  1  0
 16 37  1  0
 20 38  1  0
 21 39  1  0
 22 40  1  0
M  END
>  <Energy>  (1297) 
628.6342975233789

>  <compound_id>  (1297) 
30248

>  <target_id>  (1297) 
1

>  <reference_id>  (1297) 
97

>  <inspiration_ids>  (1297) 
[97, 7]

>  <energy_score>  (1297) 
555.3353583590008

>  <distance_score>  (1297) 
11.760289527800008

>  <path>  (1297) 
/opt/xchem-fragalysis-2/maxwin/BulkDock/SCRATCH/511024/C30248-P97/C30248-P97.minimised.mol

>  <scratch_subdir>  (1297) 
/opt/xchem-fragalysis-2/maxwin/BulkDock/SCRATCH/511024/C30248-P97

>  <fragmenstein_runtime>  (1297) 
11.463959217071533

>  <fragmenstein_outcome>  (1297) 
too moved

>  <fragmenstein_mode>  (1297) 
expansion

>  <fragmenstein_error>  (1297) 


$$$$
C30248-P7
     RDKit          3D

 40 42  0  0  0  0  0  0  0  0999 V2000
    5.3244    0.6241   24.8143 C   0  0  0  0  0  0  0  0  0  0  0  0
    5.2834   -0.9085   24.9308 C   0  0  0  0  0  0  0  0  0  0  0  0
    6.7624   -1.4303   24.9090 C   0  0  0  0  0  0  0  0  0  0  0  0
    7.0342   -2.5698   23.9956 N   0  0  0  0  0  0  0  0  0  0  0  0
    7.3938   -2.5996   22.5986 C   0  0  0  0  0  0  0  0  0  0  0  0
    7.4885   -1.7143   21.7974 O   0  0  0  0  0  0  0  0  0  0  0  0
    7.7929   -4.0371   22.0208 C   0  0  0  0  0  0  0  0  0  0  0  0
    7.8776   -5.4029   23.0780 C   0  0  0  0  0  0  0  0  0  0  0  0
    9.1611   -6.5427   23.0997 C   0  0  0  0  0  0  0  0  0  0  0  0
   10.3270   -6.5887   21.8446 C   0  0  0  0  0  0  0  0  0  0  0  0
   11.6292   -7.0438   21.8993 N   0  0  0  0  0  0  0  0  0  0  0  0
   12.4952   -6.1009   21.3899 C   0  0  0  0  0  0  0  0  0  0  0  0
   11.8692   -5.2091   20.5434 C   0  0  0  0  0  0  0  0  0  0  0  0
   10.2781   -5.4209   20.5069 C   0  0  0  0  0  0  0  0  0  0  0  0
    8.8888   -4.0949   20.5670 C   0  0  0  0  0  0  0  0  0  0  0  0
    4.3203   -1.2608   26.0179 N   0  0  0  0  0  0  0  0  0  0  0  0
    4.2083   -0.7835   27.3761 C   0  0  0  0  0  0  0  0  0  0  0  0
    4.9100   -0.0417   28.0039 O   0  0  0  0  0  0  0  0  0  0  0  0
    2.9168   -1.2396   28.0649 C   0  0  0  0  0  0  0  0  0  0  0  0
    2.3212   -0.6585   29.2448 C   0  0  0  0  0  0  0  0  0  0  0  0
    1.1016   -1.2741   29.4211 C   0  0  0  0  0  0  0  0  0  0  0  0
    1.0041   -2.1617   28.3937 N   0  0  0  0  0  0  0  0  0  0  0  0
    2.1014   -2.2121   27.6090 N   0  0  0  0  0  0  0  0  0  0  0  0
    5.7933    0.9315   23.8733 H   0  0  0  0  0  0  0  0  0  0  0  0
    4.3219    1.0629   24.8524 H   0  0  0  0  0  0  0  0  0  0  0  0
    5.8990    1.0639   25.6373 H   0  0  0  0  0  0  0  0  0  0  0  0
    4.8246   -1.3282   24.0352 H   0  0  0  0  0  0  0  0  0  0  0  0
    7.4308   -0.6374   24.5533 H   0  0  0  0  0  0  0  0  0  0  0  0
    7.0948   -1.7087   25.9131 H   0  0  0  0  0  0  0  0  0  0  0  0
    7.1366   -3.4898   24.3798 H   0  0  0  0  0  0  0  0  0  0  0  0
    7.1416   -5.4841   23.8475 H   0  0  0  0  0  0  0  0  0  0  0  0
    9.2741   -7.2614   23.9075 H   0  0  0  0  0  0  0  0  0  0  0  0
   11.9281   -7.7304   22.5757 H   0  0  0  0  0  0  0  0  0  0  0  0
   13.5432   -6.1637   21.6558 H   0  0  0  0  0  0  0  0  0  0  0  0
   12.3963   -4.3722   20.0982 H   0  0  0  0  0  0  0  0  0  0  0  0
    9.2958   -3.1075   20.4878 H   0  0  0  0  0  0  0  0  0  0  0  0
    3.4928   -1.8166   25.7912 H   0  0  0  0  0  0  0  0  0  0  0  0
    2.7439    0.1428   29.8355 H   0  0  0  0  0  0  0  0  0  0  0  0
    0.3108   -1.1407   30.1435 H   0  0  0  0  0  0  0  0  0  0  0  0
    0.2249   -2.7662   28.1526 H   0  0  0  0  0  0  0  0  0  0  0  0
  1  2  1  0
  2  3  1  0
  3  4  1  0
  4  5  1  0
  5  6  2  0
  5  7  1  0
  7  8  2  0
  8  9  1  0
  9 10  2  0
 10 11  1  0
 11 12  1  0
 12 13  2  0
 13 14  1  0
 14 15  2  0
  2 16  1  0
 16 17  1  0
 17 18  2  0
 17 19  1  0
 19 20  1  0
 20 21  2  0
 21 22  1  0
 22 23  1  0
 15  7  1  0
 23 19  2  0
 14 10  1  0
  1 24  1  0
  1 25  1  0
  1 26  1  0
  2 27  1  0
  3 28  1  0
  3 29  1  0
  4 30  1  0
  8 31  1  0
  9 32  1  0
 11 33  1  0
 12 34  1  0
 13 35  1  0
 15 36  1  0
 16 37  1  0
 20 38  1  0
 21 39  1  0
 22 40  1  0
M  END
>  <Energy>  (1298) 
351.0807155513466

>  <compound_id>  (1298) 
30248

>  <target_id>  (1298) 
1

>  <reference_id>  (1298) 
7

>  <inspiration_ids>  (1298) 
[97, 7]

>  <energy_score>  (1298) 
277.78177638696116

>  <distance_score>  (1298) 
11.976940072127713

>  <path>  (1298) 
/opt/xchem-fragalysis-2/maxwin/BulkDock/SCRATCH/511024/C30248-P7/C30248-P7.minimised.mol

>  <scratch_subdir>  (1298) 
/opt/xchem-fragalysis-2/maxwin/BulkDock/SCRATCH/511024/C30248-P7

>  <fragmenstein_runtime>  (1298) 
12.862094640731812

>  <fragmenstein_outcome>  (1298) 
too moved

>  <fragmenstein_mode>  (1298) 
expansion

>  <fragmenstein_error>  (1298) 


$$$$
C30249-P97
     RDKit          3D

 41 43  0  0  0  0  0  0  0  0999 V2000
    6.6150   -2.7124   20.9639 O   0  0  0  0  0  0  0  0  0  0  0  0
    7.5335   -3.3951   21.3624 C   0  0  0  0  0  0  0  0  0  0  0  0
    7.6463   -3.8418   22.9378 N   0  0  0  0  0  0  0  0  0  0  0  0
    6.7845   -3.4487   24.2053 C   0  0  0  0  0  0  0  0  0  0  0  0
    6.1953   -1.9000   25.2418 C   0  0  0  0  0  0  0  0  0  0  0  0
    4.6538   -1.6668   24.6397 C   0  0  0  0  0  0  0  0  0  0  0  0
    4.0281   -0.4662   25.1356 O   0  0  0  0  0  0  0  0  0  0  0  0
    5.6071   -1.7696   26.7206 N   0  0  0  0  0  0  0  0  0  0  0  0
    5.4596   -0.6318   27.5801 C   0  0  0  0  0  0  0  0  0  0  0  0
    5.8187    0.5042   27.4441 O   0  0  0  0  0  0  0  0  0  0  0  0
    4.6001   -0.9837   28.8088 C   0  0  0  0  0  0  0  0  0  0  0  0
    3.9797   -0.0362   29.7024 C   0  0  0  0  0  0  0  0  0  0  0  0
    3.0417   -0.7293   30.4346 C   0  0  0  0  0  0  0  0  0  0  0  0
    3.1200   -2.0103   29.9876 N   0  0  0  0  0  0  0  0  0  0  0  0
    4.0685   -2.2133   29.0451 N   0  0  0  0  0  0  0  0  0  0  0  0
    8.8285   -3.6546   19.9265 C   0  0  0  0  0  0  0  0  0  0  0  0
    9.6199   -5.2739   19.2988 C   0  0  0  0  0  0  0  0  0  0  0  0
   10.6535   -4.7944   17.6157 C   0  0  0  0  0  0  0  0  0  0  0  0
   10.5797   -3.1799   16.5728 C   0  0  0  0  0  0  0  0  0  0  0  0
   11.2327   -2.6269   15.4495 C   0  0  0  0  0  0  0  0  0  0  0  0
   10.6922   -1.3768   15.1562 C   0  0  0  0  0  0  0  0  0  0  0  0
    9.5481   -0.9698   15.8472 N   0  0  0  0  0  0  0  0  0  0  0  0
    9.2544   -1.8445   16.8897 C   0  0  0  0  0  0  0  0  0  0  0  0
    8.7281   -1.8474   18.8847 C   0  0  0  0  0  0  0  0  0  0  0  0
    8.3843   -4.4393   23.0210 H   0  0  0  0  0  0  0  0  0  0  0  0
    6.2450   -2.8012   23.5558 H   0  0  0  0  0  0  0  0  0  0  0  0
    6.1651   -4.3027   24.1185 H   0  0  0  0  0  0  0  0  0  0  0  0
    6.9763   -1.1378   25.2710 H   0  0  0  0  0  0  0  0  0  0  0  0
    3.9919   -2.4868   24.9419 H   0  0  0  0  0  0  0  0  0  0  0  0
    4.6361   -1.6483   23.5499 H   0  0  0  0  0  0  0  0  0  0  0  0
    3.7133   -0.0182   24.3166 H   0  0  0  0  0  0  0  0  0  0  0  0
    5.1045   -2.5542   27.1220 H   0  0  0  0  0  0  0  0  0  0  0  0
    4.1642    1.0294   29.7169 H   0  0  0  0  0  0  0  0  0  0  0  0
    2.3290   -0.4209   31.1850 H   0  0  0  0  0  0  0  0  0  0  0  0
    2.5603   -2.8044   30.2763 H   0  0  0  0  0  0  0  0  0  0  0  0
    9.4501   -6.0839   19.9772 H   0  0  0  0  0  0  0  0  0  0  0  0
   11.3866   -5.3741   17.0487 H   0  0  0  0  0  0  0  0  0  0  0  0
   12.0574   -3.0719   14.9104 H   0  0  0  0  0  0  0  0  0  0  0  0
   11.0173   -0.7081   14.3685 H   0  0  0  0  0  0  0  0  0  0  0  0
    9.0708   -0.0949   15.6691 H   0  0  0  0  0  0  0  0  0  0  0  0
    8.2977   -0.8373   19.2252 H   0  0  0  0  0  0  0  0  0  0  0  0
  1  2  2  0
  2  3  1  0
  3  4  1  0
  4  5  1  0
  5  6  1  0
  6  7  1  0
  5  8  1  0
  8  9  1  0
  9 10  2  0
  9 11  1  0
 11 12  1  0
 12 13  2  0
 13 14  1  0
 14 15  1  0
  2 16  1  0
 16 17  2  0
 17 18  1  0
 18 19  2  0
 19 20  1  0
 20 21  2  0
 21 22  1  0
 22 23  1  0
 23 24  2  0
 15 11  2  0
 24 16  1  0
 23 19  1  0
  3 25  1  0
  4 26  1  0
  4 27  1  0
  5 28  1  0
  6 29  1  0
  6 30  1  0
  7 31  1  0
  8 32  1  0
 12 33  1  0
 13 34  1  0
 14 35  1  0
 17 36  1  0
 18 37  1  0
 20 38  1  0
 21 39  1  0
 22 40  1  0
 24 41  1  0
M  END
>  <Energy>  (1299) 
981.94034783697373

>  <compound_id>  (1299) 
30249

>  <target_id>  (1299) 
1

>  <reference_id>  (1299) 
97

>  <inspiration_ids>  (1299) 
[97, 7]

>  <energy_score>  (1299) 
874.9830823494739

>  <distance_score>  (1299) 
11.276785213584903

>  <path>  (1299) 
/opt/xchem-fragalysis-2/maxwin/BulkDock/SCRATCH/511024/C30249-P97/C30249-P97.minimised.mol

>  <scratch_subdir>  (1299) 
/opt/xchem-fragalysis-2/maxwin/BulkDock/SCRATCH/511024/C30249-P97

>  <fragmenstein_runtime>  (1299) 
15.105601787567139

>  <fragmenstein_outcome>  (1299) 
too moved

>  <fragmenstein_mode>  (1299) 
expansion

>  <fragmenstein_error>  (1299) 


$$$$
C30249-P7
     RDKit          3D

 41 43  0  0  0  0  0  0  0  0999 V2000
    7.6993   -2.9793   21.3633 O   0  0  0  0  0  0  0  0  0  0  0  0
    7.2437   -1.8776   21.0097 C   0  0  0  0  0  0  0  0  0  0  0  0
    5.8446   -1.1788   21.6429 N   0  0  0  0  0  0  0  0  0  0  0  0
    4.7162   -1.7002   23.0976 C   0  0  0  0  0  0  0  0  0  0  0  0
    4.5435   -0.8894   24.7936 C   0  0  0  0  0  0  0  0  0  0  0  0
    4.0423   -1.9961   25.7918 C   0  0  0  0  0  0  0  0  0  0  0  0
    3.5314   -3.1314   25.1659 O   0  0  0  0  0  0  0  0  0  0  0  0
    3.6163    0.1895   25.3312 N   0  0  0  0  0  0  0  0  0  0  0  0
    3.4339    0.7049   26.6869 C   0  0  0  0  0  0  0  0  0  0  0  0
    4.0291    0.4637   27.6995 O   0  0  0  0  0  0  0  0  0  0  0  0
    2.2322    1.6206   26.9212 C   0  0  0  0  0  0  0  0  0  0  0  0
    1.6079    1.7514   28.2276 C   0  0  0  0  0  0  0  0  0  0  0  0
    0.4145    2.4006   28.0405 C   0  0  0  0  0  0  0  0  0  0  0  0
    0.3767    2.6777   26.7106 N   0  0  0  0  0  0  0  0  0  0  0  0
    1.4319    2.1996   26.0008 N   0  0  0  0  0  0  0  0  0  0  0  0
    8.4877   -1.0754   19.8226 C   0  0  0  0  0  0  0  0  0  0  0  0
    9.7749   -2.5417   20.2524 C   0  0  0  0  0  0  0  0  0  0  0  0
   11.6344   -2.5763   19.2268 C   0  0  0  0  0  0  0  0  0  0  0  0
   11.6580   -1.4069   17.6625 C   0  0  0  0  0  0  0  0  0  0  0  0
   12.5580   -1.1779   16.5955 C   0  0  0  0  0  0  0  0  0  0  0  0
   12.0491   -0.1973   15.7536 C   0  0  0  0  0  0  0  0  0  0  0  0
   10.8301    0.3683   16.1074 N   0  0  0  0  0  0  0  0  0  0  0  0
   10.3585   -0.0954   17.3135 C   0  0  0  0  0  0  0  0  0  0  0  0
    8.7181    0.0845   18.3726 C   0  0  0  0  0  0  0  0  0  0  0  0
    5.6484   -0.3208   21.1248 H   0  0  0  0  0  0  0  0  0  0  0  0
    5.4720   -2.2637   23.6095 H   0  0  0  0  0  0  0  0  0  0  0  0
    3.8560   -2.3768   23.1318 H   0  0  0  0  0  0  0  0  0  0  0  0
    5.5169   -0.6713   25.1767 H   0  0  0  0  0  0  0  0  0  0  0  0
    3.2104   -1.6827   26.4347 H   0  0  0  0  0  0  0  0  0  0  0  0
    4.8113   -2.1967   26.5351 H   0  0  0  0  0  0  0  0  0  0  0  0
    2.6657   -2.8525   24.7960 H   0  0  0  0  0  0  0  0  0  0  0  0
    2.9885    0.6751   24.7054 H   0  0  0  0  0  0  0  0  0  0  0  0
    1.9934    1.3439   29.1533 H   0  0  0  0  0  0  0  0  0  0  0  0
   -0.3766    2.6941   28.7151 H   0  0  0  0  0  0  0  0  0  0  0  0
   -0.3394    3.1940   26.2104 H   0  0  0  0  0  0  0  0  0  0  0  0
    9.6274   -3.3676   21.0368 H   0  0  0  0  0  0  0  0  0  0  0  0
   12.4828   -3.2607   19.4007 H   0  0  0  0  0  0  0  0  0  0  0  0
   13.4880   -1.7061   16.4299 H   0  0  0  0  0  0  0  0  0  0  0  0
   12.4898    0.1591   14.8306 H   0  0  0  0  0  0  0  0  0  0  0  0
   10.3407    1.0368   15.5284 H   0  0  0  0  0  0  0  0  0  0  0  0
    7.9481    0.7279   17.9542 H   0  0  0  0  0  0  0  0  0  0  0  0
  1  2  2  0
  2  3  1  0
  3  4  1  0
  4  5  1  0
  5  6  1  0
  6  7  1  0
  5  8  1  0
  8  9  1  0
  9 10  2  0
  9 11  1  0
 11 12  1  0
 12 13  2  0
 13 14  1  0
 14 15  1  0
  2 16  1  0
 16 17  2  0
 17 18  1  0
 18 19  2  0
 19 20  1  0
 20 21  2  0
 21 22  1  0
 22 23  1  0
 23 24  2  0
 15 11  2  0
 24 16  1  0
 23 19  1  0
  3 25  1  0
  4 26  1  0
  4 27  1  0
  5 28  1  0
  6 29  1  0
  6 30  1  0
  7 31  1  0
  8 32  1  0
 12 33  1  0
 13 34  1  0
 14 35  1  0
 17 36  1  0
 18 37  1  0
 20 38  1  0
 21 39  1  0
 22 40  1  0
 24 41  1  0
M  END
>  <Energy>  (1300) 
932.1607362375953

>  <compound_id>  (1300) 
30249

>  <target_id>  (1300) 
1

>  <reference_id>  (1300) 
7

>  <inspiration_ids>  (1300) 
[97, 7]

>  <energy_score>  (1300) 
825.2034707501105

>  <distance_score>  (1300) 
10.915038422867578

>  <path>  (1300) 
/opt/xchem-fragalysis-2/maxwin/BulkDock/SCRATCH/511024/C30249-P7/C30249-P7.minimised.mol

>  <scratch_subdir>  (1300) 
/opt/xchem-fragalysis-2/maxwin/BulkDock/SCRATCH/511024/C30249-P7

>  <fragmenstein_runtime>  (1300) 
15.146084785461426

>  <fragmenstein_outcome>  (1300) 
too moved

>  <fragmenstein_mode>  (1300) 
expansion

>  <fragmenstein_error>  (1300) 


$$$$
C30250-P97
     RDKit          3D

 43 45  0  0  0  0  0  0  0  0999 V2000
    2.3858    2.0361   24.9156 C   0  0  0  0  0  0  0  0  0  0  0  0
    3.0637    0.6780   25.2578 C   0  0  0  0  0  0  0  0  0  0  0  0
    4.2627    0.2315   24.2933 C   0  0  0  0  0  0  0  0  0  0  0  0
    4.3886    0.8015   22.2978 C   0  0  0  0  0  0  0  0  0  0  0  0
    5.9810    1.7580   21.5909 N   0  0  0  0  0  0  0  0  0  0  0  0
    7.2788    1.1978   20.5379 C   0  0  0  0  0  0  0  0  0  0  0  0
    7.5010    0.0572   20.0998 O   0  0  0  0  0  0  0  0  0  0  0  0
    8.2269    2.1825   19.9537 C   0  0  0  0  0  0  0  0  0  0  0  0
    8.0830    2.3102   18.5427 C   0  0  0  0  0  0  0  0  0  0  0  0
    9.0213    2.9532   17.7450 C   0  0  0  0  0  0  0  0  0  0  0  0
   10.1691    3.4774   18.3201 C   0  0  0  0  0  0  0  0  0  0  0  0
   10.3426    3.3029   19.7000 C   0  0  0  0  0  0  0  0  0  0  0  0
   11.4288    3.6375   20.4747 N   0  0  0  0  0  0  0  0  0  0  0  0
   11.2417    3.1979   21.7537 C   0  0  0  0  0  0  0  0  0  0  0  0
   10.0051    2.5975   21.8227 C   0  0  0  0  0  0  0  0  0  0  0  0
    9.4092    2.6614   20.5358 C   0  0  0  0  0  0  0  0  0  0  0  0
    2.6539    0.4661   26.6775 N   0  0  0  0  0  0  0  0  0  0  0  0
    2.4514   -0.7438   27.4326 C   0  0  0  0  0  0  0  0  0  0  0  0
    2.6413   -1.8877   27.1399 O   0  0  0  0  0  0  0  0  0  0  0  0
    1.7907   -0.4460   28.7717 C   0  0  0  0  0  0  0  0  0  0  0  0
    1.2701   -1.4136   29.6980 C   0  0  0  0  0  0  0  0  0  0  0  0
    0.4652   -0.7268   30.5780 C   0  0  0  0  0  0  0  0  0  0  0  0
    0.5289    0.5716   30.1802 N   0  0  0  0  0  0  0  0  0  0  0  0
    1.3219    0.7830   29.1059 N   0  0  0  0  0  0  0  0  0  0  0  0
    2.9093    2.8599   25.4180 H   0  0  0  0  0  0  0  0  0  0  0  0
    1.3598    2.1085   25.2982 H   0  0  0  0  0  0  0  0  0  0  0  0
    2.3400    2.2590   23.8503 H   0  0  0  0  0  0  0  0  0  0  0  0
    2.6051   -0.2543   24.9720 H   0  0  0  0  0  0  0  0  0  0  0  0
    4.2976   -0.8872   24.2812 H   0  0  0  0  0  0  0  0  0  0  0  0
    5.0425    0.5333   25.0265 H   0  0  0  0  0  0  0  0  0  0  0  0
    4.3465   -0.0721   21.6745 H   0  0  0  0  0  0  0  0  0  0  0  0
    3.4375    1.3904   22.0772 H   0  0  0  0  0  0  0  0  0  0  0  0
    6.0352    2.8199   21.6943 H   0  0  0  0  0  0  0  0  0  0  0  0
    7.2304    1.8392   18.0529 H   0  0  0  0  0  0  0  0  0  0  0  0
    8.8693    3.0230   16.6707 H   0  0  0  0  0  0  0  0  0  0  0  0
   10.9246    3.9647   17.7111 H   0  0  0  0  0  0  0  0  0  0  0  0
   12.2607    4.0998   20.1328 H   0  0  0  0  0  0  0  0  0  0  0  0
   12.0040    3.3420   22.5082 H   0  0  0  0  0  0  0  0  0  0  0  0
    9.5857    2.1429   22.7102 H   0  0  0  0  0  0  0  0  0  0  0  0
    2.3045    1.2557   27.2172 H   0  0  0  0  0  0  0  0  0  0  0  0
    1.4245   -2.4832   29.6485 H   0  0  0  0  0  0  0  0  0  0  0  0
   -0.1418   -1.0457   31.4123 H   0  0  0  0  0  0  0  0  0  0  0  0
    0.0570    1.3726   30.5859 H   0  0  0  0  0  0  0  0  0  0  0  0
  1  2  1  0
  2  3  1  0
  3  4  1  0
  4  5  1  0
  5  6  1  0
  6  7  2  0
  6  8  1  0
  8  9  2  0
  9 10  1  0
 10 11  2  0
 11 12  1  0
 12 13  1  0
 13 14  1  0
 14 15  2  0
 15 16  1  0
  2 17  1  0
 17 18  1  0
 18 19  2  0
 18 20  1  0
 20 21  1  0
 21 22  2  0
 22 23  1  0
 23 24  1  0
 16  8  1  0
 24 20  2  0
 16 12  2  0
  1 25  1  0
  1 26  1  0
  1 27  1  0
  2 28  1  0
  3 29  1  0
  3 30  1  0
  4 31  1  0
  4 32  1  0
  5 33  1  0
  9 34  1  0
 10 35  1  0
 11 36  1  0
 13 37  1  0
 14 38  1  0
 15 39  1  0
 17 40  1  0
 21 41  1  0
 22 42  1  0
 23 43  1  0
M  END
>  <Energy>  (1301) 
293.08567885729911

>  <compound_id>  (1301) 
30250

>  <target_id>  (1301) 
1

>  <reference_id>  (1301) 
97

>  <inspiration_ids>  (1301) 
[97, 7]

>  <energy_score>  (1301) 
218.21629279787268

>  <distance_score>  (1301) 
11.43244303087579

>  <path>  (1301) 
/opt/xchem-fragalysis-2/maxwin/BulkDock/SCRATCH/511024/C30250-P97/C30250-P97.minimised.mol

>  <scratch_subdir>  (1301) 
/opt/xchem-fragalysis-2/maxwin/BulkDock/SCRATCH/511024/C30250-P97

>  <fragmenstein_runtime>  (1301) 
12.386394262313843

>  <fragmenstein_outcome>  (1301) 
too moved

>  <fragmenstein_mode>  (1301) 
expansion

>  <fragmenstein_error>  (1301) 


$$$$
C30250-P7
     RDKit          3D

 43 45  0  0  0  0  0  0  0  0999 V2000
    3.6138    0.3673   26.2779 C   0  0  0  0  0  0  0  0  0  0  0  0
    2.7830    1.6362   26.4037 C   0  0  0  0  0  0  0  0  0  0  0  0
    2.7102    2.6665   25.2208 C   0  0  0  0  0  0  0  0  0  0  0  0
    2.5650    2.5279   23.6472 C   0  0  0  0  0  0  0  0  0  0  0  0
    3.6099    2.0508   22.7037 N   0  0  0  0  0  0  0  0  0  0  0  0
    4.7474    0.8067   22.8370 C   0  0  0  0  0  0  0  0  0  0  0  0
    4.8285   -0.0133   23.7740 O   0  0  0  0  0  0  0  0  0  0  0  0
    6.1724    0.7744   21.4450 C   0  0  0  0  0  0  0  0  0  0  0  0
    7.0044   -0.1676   20.3529 C   0  0  0  0  0  0  0  0  0  0  0  0
    7.6616    0.2678   19.1261 C   0  0  0  0  0  0  0  0  0  0  0  0
    7.8782    1.5689   18.7005 C   0  0  0  0  0  0  0  0  0  0  0  0
    7.9687    2.3514   19.8188 C   0  0  0  0  0  0  0  0  0  0  0  0
    8.6878    3.5189   19.9747 N   0  0  0  0  0  0  0  0  0  0  0  0
    9.4617    3.2834   21.0733 C   0  0  0  0  0  0  0  0  0  0  0  0
    8.8787    2.1825   21.6686 C   0  0  0  0  0  0  0  0  0  0  0  0
    7.4501    1.9749   21.1079 C   0  0  0  0  0  0  0  0  0  0  0  0
    1.6077    1.2977   27.2288 N   0  0  0  0  0  0  0  0  0  0  0  0
    0.2372    1.6725   27.1088 C   0  0  0  0  0  0  0  0  0  0  0  0
   -0.3315    2.2970   26.2603 O   0  0  0  0  0  0  0  0  0  0  0  0
   -0.5252    1.1209   28.2920 C   0  0  0  0  0  0  0  0  0  0  0  0
   -1.9081    1.2692   28.5927 C   0  0  0  0  0  0  0  0  0  0  0  0
   -2.1203    0.5785   29.7658 C   0  0  0  0  0  0  0  0  0  0  0  0
   -0.9206    0.0398   30.0979 N   0  0  0  0  0  0  0  0  0  0  0  0
    0.0714    0.3867   29.2619 N   0  0  0  0  0  0  0  0  0  0  0  0
    4.6613    0.5818   26.0772 H   0  0  0  0  0  0  0  0  0  0  0  0
    3.6174   -0.1864   27.2265 H   0  0  0  0  0  0  0  0  0  0  0  0
    3.2124   -0.3231   25.5389 H   0  0  0  0  0  0  0  0  0  0  0  0
    3.3457    2.2158   27.1537 H   0  0  0  0  0  0  0  0  0  0  0  0
    3.6181    3.2763   25.3477 H   0  0  0  0  0  0  0  0  0  0  0  0
    1.9113    3.3681   25.5029 H   0  0  0  0  0  0  0  0  0  0  0  0
    2.7666    3.5975   23.4283 H   0  0  0  0  0  0  0  0  0  0  0  0
    1.5534    2.6325   23.2675 H   0  0  0  0  0  0  0  0  0  0  0  0
    3.7237    2.5035   21.8077 H   0  0  0  0  0  0  0  0  0  0  0  0
    6.9560   -1.2122   20.5957 H   0  0  0  0  0  0  0  0  0  0  0  0
    7.9717   -0.4028   18.3941 H   0  0  0  0  0  0  0  0  0  0  0  0
    8.3140    1.8252   17.7436 H   0  0  0  0  0  0  0  0  0  0  0  0
    8.9781    4.1188   19.2152 H   0  0  0  0  0  0  0  0  0  0  0  0
   10.3726    3.8317   21.2739 H   0  0  0  0  0  0  0  0  0  0  0  0
    9.3132    1.6683   22.5158 H   0  0  0  0  0  0  0  0  0  0  0  0
    1.7479    0.8376   28.1294 H   0  0  0  0  0  0  0  0  0  0  0  0
   -2.6236    1.8360   28.0111 H   0  0  0  0  0  0  0  0  0  0  0  0
   -2.9924    0.4187   30.3760 H   0  0  0  0  0  0  0  0  0  0  0  0
   -0.6918   -0.5572   30.8862 H   0  0  0  0  0  0  0  0  0  0  0  0
  1  2  1  0
  2  3  1  0
  3  4  1  0
  4  5  1  0
  5  6  1  0
  6  7  2  0
  6  8  1  0
  8  9  2  0
  9 10  1  0
 10 11  2  0
 11 12  1  0
 12 13  1  0
 13 14  1  0
 14 15  2  0
 15 16  1  0
  2 17  1  0
 17 18  1  0
 18 19  2  0
 18 20  1  0
 20 21  1  0
 21 22  2  0
 22 23  1  0
 23 24  1  0
 16  8  1  0
 24 20  2  0
 16 12  2  0
  1 25  1  0
  1 26  1  0
  1 27  1  0
  2 28  1  0
  3 29  1  0
  3 30  1  0
  4 31  1  0
  4 32  1  0
  5 33  1  0
  9 34  1  0
 10 35  1  0
 11 36  1  0
 13 37  1  0
 14 38  1  0
 15 39  1  0
 17 40  1  0
 21 41  1  0
 22 42  1  0
 23 43  1  0
M  END
>  <Energy>  (1302) 
367.96443222415724

>  <compound_id>  (1302) 
30250

>  <target_id>  (1302) 
1

>  <reference_id>  (1302) 
7

>  <inspiration_ids>  (1302) 
[97, 7]

>  <energy_score>  (1302) 
293.0950461647346

>  <distance_score>  (1302) 
10.649597220292723

>  <path>  (1302) 
/opt/xchem-fragalysis-2/maxwin/BulkDock/SCRATCH/511024/C30250-P7/C30250-P7.minimised.mol

>  <scratch_subdir>  (1302) 
/opt/xchem-fragalysis-2/maxwin/BulkDock/SCRATCH/511024/C30250-P7

>  <fragmenstein_runtime>  (1302) 
14.491585969924927

>  <fragmenstein_outcome>  (1302) 
too moved

>  <fragmenstein_mode>  (1302) 
expansion

>  <fragmenstein_error>  (1302) 


$$$$
C30251-P97
     RDKit          3D

 46 48  0  0  0  0  0  0  0  0999 V2000
    2.8294    4.7471   24.3656 C   0  0  0  0  0  0  0  0  0  0  0  0
    1.8714    3.8011   23.6284 C   0  0  0  0  0  0  0  0  0  0  0  0
    1.8438    4.2006   22.1072 C   0  0  0  0  0  0  0  0  0  0  0  0
    2.6498    3.2265   21.1851 C   0  0  0  0  0  0  0  0  0  0  0  0
    3.7544    3.7029   20.3200 N   0  0  0  0  0  0  0  0  0  0  0  0
    5.0802    3.1512   20.0770 C   0  0  0  0  0  0  0  0  0  0  0  0
    5.6407    2.2190   20.5762 O   0  0  0  0  0  0  0  0  0  0  0  0
    5.9070    3.7286   18.9520 C   0  0  0  0  0  0  0  0  0  0  0  0
    5.2996    3.9557   17.7079 C   0  0  0  0  0  0  0  0  0  0  0  0
    6.0593    4.1754   16.5553 C   0  0  0  0  0  0  0  0  0  0  0  0
    7.4516    4.1203   16.5716 C   0  0  0  0  0  0  0  0  0  0  0  0
    8.0764    3.8868   17.7993 C   0  0  0  0  0  0  0  0  0  0  0  0
    7.3442    3.7135   18.9896 C   0  0  0  0  0  0  0  0  0  0  0  0
    8.3265    3.5103   20.0113 C   0  0  0  0  0  0  0  0  0  0  0  0
    9.5796    3.5500   19.4404 C   0  0  0  0  0  0  0  0  0  0  0  0
    9.4195    3.7746   18.1035 N   0  0  0  0  0  0  0  0  0  0  0  0
   10.5047    3.8936   17.1545 C   0  0  0  0  0  0  0  0  0  0  0  0
    0.6308    3.7259   24.4468 N   0  0  0  0  0  0  0  0  0  0  0  0
   -0.7402    3.5255   24.0673 C   0  0  0  0  0  0  0  0  0  0  0  0
   -1.2479    3.4468   22.9859 O   0  0  0  0  0  0  0  0  0  0  0  0
   -1.6176    3.3323   25.3024 C   0  0  0  0  0  0  0  0  0  0  0  0
   -3.0498    3.3108   25.3612 C   0  0  0  0  0  0  0  0  0  0  0  0
   -3.3873    3.0907   26.6766 C   0  0  0  0  0  0  0  0  0  0  0  0
   -2.2045    2.9581   27.3361 N   0  0  0  0  0  0  0  0  0  0  0  0
   -1.1195    3.1212   26.5451 N   0  0  0  0  0  0  0  0  0  0  0  0
    2.3907    5.7473   24.4591 H   0  0  0  0  0  0  0  0  0  0  0  0
    3.7850    4.8490   23.8437 H   0  0  0  0  0  0  0  0  0  0  0  0
    3.0336    4.3833   25.3788 H   0  0  0  0  0  0  0  0  0  0  0  0
    2.2671    2.7865   23.7133 H   0  0  0  0  0  0  0  0  0  0  0  0
    2.2103    5.2241   21.9657 H   0  0  0  0  0  0  0  0  0  0  0  0
    0.8064    4.1969   21.7581 H   0  0  0  0  0  0  0  0  0  0  0  0
    3.0263    2.3679   21.7392 H   0  0  0  0  0  0  0  0  0  0  0  0
    1.9291    2.8098   20.4699 H   0  0  0  0  0  0  0  0  0  0  0  0
    3.5783    4.4457   19.6559 H   0  0  0  0  0  0  0  0  0  0  0  0
    4.2183    3.9015   17.6052 H   0  0  0  0  0  0  0  0  0  0  0  0
    5.5464    4.3572   15.6117 H   0  0  0  0  0  0  0  0  0  0  0  0
    8.0197    4.2706   15.6597 H   0  0  0  0  0  0  0  0  0  0  0  0
    8.1202    3.3411   21.0611 H   0  0  0  0  0  0  0  0  0  0  0  0
   10.5596    3.4425   19.8883 H   0  0  0  0  0  0  0  0  0  0  0  0
   11.4587    3.7531   17.6691 H   0  0  0  0  0  0  0  0  0  0  0  0
   10.4667    4.8909   16.7092 H   0  0  0  0  0  0  0  0  0  0  0  0
   10.3809    3.1216   16.3906 H   0  0  0  0  0  0  0  0  0  0  0  0
    0.7077    3.6556   25.4620 H   0  0  0  0  0  0  0  0  0  0  0  0
   -3.7226    3.4556   24.5267 H   0  0  0  0  0  0  0  0  0  0  0  0
   -4.3392    3.0253   27.1818 H   0  0  0  0  0  0  0  0  0  0  0  0
   -2.0530    2.7770   28.3237 H   0  0  0  0  0  0  0  0  0  0  0  0
  1  2  1  0
  2  3  1  0
  3  4  1  0
  4  5  1  0
  5  6  1  0
  6  7  2  0
  6  8  1  0
  8  9  2  0
  9 10  1  0
 10 11  2  0
 11 12  1  0
 12 13  2  0
 13 14  1  0
 14 15  2  0
 15 16  1  0
 16 17  1  0
  2 18  1  0
 18 19  1  0
 19 20  2  0
 19 21  1  0
 21 22  1  0
 22 23  2  0
 23 24  1  0
 24 25  1  0
 13  8  1  0
 25 21  2  0
 16 12  1  0
  1 26  1  0
  1 27  1  0
  1 28  1  0
  2 29  1  0
  3 30  1  0
  3 31  1  0
  4 32  1  0
  4 33  1  0
  5 34  1  0
  9 35  1  0
 10 36  1  0
 11 37  1  0
 14 38  1  0
 15 39  1  0
 17 40  1  0
 17 41  1  0
 17 42  1  0
 18 43  1  0
 22 44  1  0
 23 45  1  0
 24 46  1  0
M  END
>  <Energy>  (1303) 
78.641089966533642

>  <compound_id>  (1303) 
30251

>  <target_id>  (1303) 
1

>  <reference_id>  (1303) 
97

>  <inspiration_ids>  (1303) 
[97, 7]

>  <energy_score>  (1303) 
-1.460337583601131

>  <distance_score>  (1303) 
11.935245593273327

>  <path>  (1303) 
/opt/xchem-fragalysis-2/maxwin/BulkDock/SCRATCH/511024/C30251-P97/C30251-P97.minimised.mol

>  <scratch_subdir>  (1303) 
/opt/xchem-fragalysis-2/maxwin/BulkDock/SCRATCH/511024/C30251-P97

>  <fragmenstein_runtime>  (1303) 
19.309197425842285

>  <fragmenstein_outcome>  (1303) 
too moved

>  <fragmenstein_mode>  (1303) 
expansion

>  <fragmenstein_error>  (1303) 


$$$$
C30251-P7
     RDKit          3D

 46 48  0  0  0  0  0  0  0  0999 V2000
    2.7077    3.0047   26.3285 C   0  0  0  0  0  0  0  0  0  0  0  0
    1.7752    4.1705   26.0165 C   0  0  0  0  0  0  0  0  0  0  0  0
    1.7432    4.6216   24.5180 C   0  0  0  0  0  0  0  0  0  0  0  0
    2.3503    3.7029   23.4278 C   0  0  0  0  0  0  0  0  0  0  0  0
    3.5396    4.1709   22.7024 N   0  0  0  0  0  0  0  0  0  0  0  0
    4.0473    3.8242   21.3914 C   0  0  0  0  0  0  0  0  0  0  0  0
    3.5847    3.1282   20.5332 O   0  0  0  0  0  0  0  0  0  0  0  0
    5.3727    4.4260   21.0094 C   0  0  0  0  0  0  0  0  0  0  0  0
    5.5615    5.8083   21.0040 C   0  0  0  0  0  0  0  0  0  0  0  0
    6.7088    6.3731   20.4375 C   0  0  0  0  0  0  0  0  0  0  0  0
    7.6918    5.5952   19.8239 C   0  0  0  0  0  0  0  0  0  0  0  0
    7.5115    4.2129   19.8303 C   0  0  0  0  0  0  0  0  0  0  0  0
    6.3997    3.6162   20.4442 C   0  0  0  0  0  0  0  0  0  0  0  0
    6.6095    2.2216   20.3467 C   0  0  0  0  0  0  0  0  0  0  0  0
    7.7693    2.0038   19.6414 C   0  0  0  0  0  0  0  0  0  0  0  0
    8.2696    3.2118   19.2644 N   0  0  0  0  0  0  0  0  0  0  0  0
    9.3899    3.4272   18.3770 C   0  0  0  0  0  0  0  0  0  0  0  0
    0.4721    3.9494   26.6770 N   0  0  0  0  0  0  0  0  0  0  0  0
    0.1012    3.9839   28.0740 C   0  0  0  0  0  0  0  0  0  0  0  0
    0.7391    4.2780   29.0431 O   0  0  0  0  0  0  0  0  0  0  0  0
   -1.3408    3.6051   28.3199 C   0  0  0  0  0  0  0  0  0  0  0  0
   -1.9832    3.5332   29.6055 C   0  0  0  0  0  0  0  0  0  0  0  0
   -3.2925    3.1983   29.3657 C   0  0  0  0  0  0  0  0  0  0  0  0
   -3.3895    3.0880   28.0117 N   0  0  0  0  0  0  0  0  0  0  0  0
   -2.2250    3.2858   27.3504 N   0  0  0  0  0  0  0  0  0  0  0  0
    2.7967    2.8550   27.4105 H   0  0  0  0  0  0  0  0  0  0  0  0
    3.7120    3.2002   25.9453 H   0  0  0  0  0  0  0  0  0  0  0  0
    2.3343    2.0661   25.9085 H   0  0  0  0  0  0  0  0  0  0  0  0
    2.1856    5.0269   26.5698 H   0  0  0  0  0  0  0  0  0  0  0  0
    2.2433    5.5973   24.4545 H   0  0  0  0  0  0  0  0  0  0  0  0
    0.6967    4.8163   24.2492 H   0  0  0  0  0  0  0  0  0  0  0  0
    1.5900    3.5428   22.6534 H   0  0  0  0  0  0  0  0  0  0  0  0
    2.5929    2.7080   23.8041 H   0  0  0  0  0  0  0  0  0  0  0  0
    4.1582    4.8509   23.1274 H   0  0  0  0  0  0  0  0  0  0  0  0
    4.7845    6.4651   21.3881 H   0  0  0  0  0  0  0  0  0  0  0  0
    6.8185    7.4569   20.4379 H   0  0  0  0  0  0  0  0  0  0  0  0
    8.5546    6.0648   19.3631 H   0  0  0  0  0  0  0  0  0  0  0  0
    5.9568    1.4560   20.7550 H   0  0  0  0  0  0  0  0  0  0  0  0
    8.1865    1.0605   19.3359 H   0  0  0  0  0  0  0  0  0  0  0  0
    9.2377    4.3494   17.8110 H   0  0  0  0  0  0  0  0  0  0  0  0
   10.2973    3.4954   18.9812 H   0  0  0  0  0  0  0  0  0  0  0  0
    9.4509    2.5961   17.6701 H   0  0  0  0  0  0  0  0  0  0  0  0
   -0.3517    3.7309   26.1210 H   0  0  0  0  0  0  0  0  0  0  0  0
   -1.5181    3.7257   30.5633 H   0  0  0  0  0  0  0  0  0  0  0  0
   -4.1407    3.0465   30.0174 H   0  0  0  0  0  0  0  0  0  0  0  0
   -4.2164    2.8736   27.4631 H   0  0  0  0  0  0  0  0  0  0  0  0
  1  2  1  0
  2  3  1  0
  3  4  1  0
  4  5  1  0
  5  6  1  0
  6  7  2  0
  6  8  1  0
  8  9  2  0
  9 10  1  0
 10 11  2  0
 11 12  1  0
 12 13  2  0
 13 14  1  0
 14 15  2  0
 15 16  1  0
 16 17  1  0
  2 18  1  0
 18 19  1  0
 19 20  2  0
 19 21  1  0
 21 22  1  0
 22 23  2  0
 23 24  1  0
 24 25  1  0
 13  8  1  0
 25 21  2  0
 16 12  1  0
  1 26  1  0
  1 27  1  0
  1 28  1  0
  2 29  1  0
  3 30  1  0
  3 31  1  0
  4 32  1  0
  4 33  1  0
  5 34  1  0
  9 35  1  0
 10 36  1  0
 11 37  1  0
 14 38  1  0
 15 39  1  0
 17 40  1  0
 17 41  1  0
 17 42  1  0
 18 43  1  0
 22 44  1  0
 23 45  1  0
 24 46  1  0
M  END
>  <Energy>  (1304) 
74.523622297957033

>  <compound_id>  (1304) 
30251

>  <target_id>  (1304) 
1

>  <reference_id>  (1304) 
7

>  <inspiration_ids>  (1304) 
[97, 7]

>  <energy_score>  (1304) 
-5.577805252179019

>  <distance_score>  (1304) 
11.93238409365861

>  <path>  (1304) 
/opt/xchem-fragalysis-2/maxwin/BulkDock/SCRATCH/511024/C30251-P7/C30251-P7.minimised.mol

>  <scratch_subdir>  (1304) 
/opt/xchem-fragalysis-2/maxwin/BulkDock/SCRATCH/511024/C30251-P7

>  <fragmenstein_runtime>  (1304) 
26.419177770614624

>  <fragmenstein_outcome>  (1304) 
too moved

>  <fragmenstein_mode>  (1304) 
expansion

>  <fragmenstein_error>  (1304) 


$$$$
C30252-P97
     RDKit          3D

 50 52  0  0  0  0  0  0  0  0999 V2000
    6.5594   -0.8862   26.6647 C   0  0  0  0  0  0  0  0  0  0  0  0
    5.3915   -0.0632   26.1209 C   0  0  0  0  0  0  0  0  0  0  0  0
    4.5475    0.6024   27.2238 C   0  0  0  0  0  0  0  0  0  0  0  0
    4.5032   -0.5985   24.8698 C   0  0  0  0  0  0  0  0  0  0  0  0
    4.9388   -2.0636   23.8090 C   0  0  0  0  0  0  0  0  0  0  0  0
    5.7105   -2.6839   21.9631 C   0  0  0  0  0  0  0  0  0  0  0  0
    7.5343   -3.5051   21.4676 N   0  0  0  0  0  0  0  0  0  0  0  0
    8.2821   -5.0391   20.4885 C   0  0  0  0  0  0  0  0  0  0  0  0
   10.0027   -5.5691   19.5812 C   0  0  0  0  0  0  0  0  0  0  0  0
   11.4185   -5.6747   20.4779 C   0  0  0  0  0  0  0  0  0  0  0  0
   12.7880   -5.1978   20.1821 C   0  0  0  0  0  0  0  0  0  0  0  0
   13.2232   -4.6495   18.9308 C   0  0  0  0  0  0  0  0  0  0  0  0
   14.4496   -4.0797   18.4752 C   0  0  0  0  0  0  0  0  0  0  0  0
   14.2961   -3.7188   17.1549 C   0  0  0  0  0  0  0  0  0  0  0  0
   13.0291   -4.0646   16.7750 N   0  0  0  0  0  0  0  0  0  0  0  0
   12.3622   -4.6577   17.8271 C   0  0  0  0  0  0  0  0  0  0  0  0
   10.8514   -5.1340   17.9084 C   0  0  0  0  0  0  0  0  0  0  0  0
    3.5620   -2.5214   24.7853 N   0  0  0  0  0  0  0  0  0  0  0  0
    3.3682   -2.5090   26.3799 C   0  0  0  0  0  0  0  0  0  0  0  0
    4.1629   -2.2666   27.2536 O   0  0  0  0  0  0  0  0  0  0  0  0
    1.9445   -2.7102   27.0036 C   0  0  0  0  0  0  0  0  0  0  0  0
    1.1931   -1.5568   27.5056 C   0  0  0  0  0  0  0  0  0  0  0  0
    0.1757   -2.0223   28.3052 C   0  0  0  0  0  0  0  0  0  0  0  0
    0.3610   -3.3641   28.3384 N   0  0  0  0  0  0  0  0  0  0  0  0
    1.4288   -3.7984   27.6363 N   0  0  0  0  0  0  0  0  0  0  0  0
    6.2789   -1.6495   27.3882 H   0  0  0  0  0  0  0  0  0  0  0  0
    7.2513   -0.2227   27.1995 H   0  0  0  0  0  0  0  0  0  0  0  0
    7.1391   -1.3503   25.8661 H   0  0  0  0  0  0  0  0  0  0  0  0
    5.9086    0.8143   25.7542 H   0  0  0  0  0  0  0  0  0  0  0  0
    5.1900    1.2025   27.8789 H   0  0  0  0  0  0  0  0  0  0  0  0
    4.0162   -0.0998   27.8643 H   0  0  0  0  0  0  0  0  0  0  0  0
    3.8082    1.2809   26.7842 H   0  0  0  0  0  0  0  0  0  0  0  0
    4.3416    0.2306   24.2278 H   0  0  0  0  0  0  0  0  0  0  0  0
    3.4622   -0.5751   25.2322 H   0  0  0  0  0  0  0  0  0  0  0  0
    5.8063   -2.3670   24.3955 H   0  0  0  0  0  0  0  0  0  0  0  0
    5.1250   -2.9963   21.0961 H   0  0  0  0  0  0  0  0  0  0  0  0
    5.8164   -1.6752   21.5180 H   0  0  0  0  0  0  0  0  0  0  0  0
    7.0939   -3.3348   20.5703 H   0  0  0  0  0  0  0  0  0  0  0  0
    7.3961   -5.3894   19.9643 H   0  0  0  0  0  0  0  0  0  0  0  0
    8.2241   -5.8442   21.2561 H   0  0  0  0  0  0  0  0  0  0  0  0
   11.3879   -6.3241   21.3812 H   0  0  0  0  0  0  0  0  0  0  0  0
   13.5277   -5.2987   20.9765 H   0  0  0  0  0  0  0  0  0  0  0  0
   15.3439   -3.9344   19.0671 H   0  0  0  0  0  0  0  0  0  0  0  0
   14.9786   -3.2511   16.4582 H   0  0  0  0  0  0  0  0  0  0  0  0
   12.6270   -3.9066   15.8621 H   0  0  0  0  0  0  0  0  0  0  0  0
   10.5210   -4.6583   16.9909 H   0  0  0  0  0  0  0  0  0  0  0  0
    2.6633   -2.6856   24.3353 H   0  0  0  0  0  0  0  0  0  0  0  0
    1.4384   -0.5245   27.3006 H   0  0  0  0  0  0  0  0  0  0  0  0
   -0.6062   -1.5275   28.8605 H   0  0  0  0  0  0  0  0  0  0  0  0
   -0.1764   -4.0507   28.8543 H   0  0  0  0  0  0  0  0  0  0  0  0
  1  2  1  0
  2  3  1  0
  2  4  1  0
  4  5  1  0
  5  6  1  0
  6  7  1  0
  7  8  1  0
  8  9  1  0
  9 10  2  0
 10 11  1  0
 11 12  2  0
 12 13  1  0
 13 14  2  0
 14 15  1  0
 15 16  1  0
 16 17  2  0
  5 18  1  0
 18 19  1  0
 19 20  2  0
 19 21  1  0
 21 22  1  0
 22 23  2  0
 23 24  1  0
 24 25  1  0
 17  9  1  0
 25 21  2  0
 16 12  1  0
  1 26  1  0
  1 27  1  0
  1 28  1  0
  2 29  1  0
  3 30  1  0
  3 31  1  0
  3 32  1  0
  4 33  1  0
  4 34  1  0
  5 35  1  0
  6 36  1  0
  6 37  1  0
  7 38  1  0
  8 39  1  0
  8 40  1  0
 10 41  1  0
 11 42  1  0
 13 43  1  0
 14 44  1  0
 15 45  1  0
 17 46  1  0
 18 47  1  0
 22 48  1  0
 23 49  1  0
 24 50  1  0
M  END
>  <Energy>  (1305) 
844.38924837326374

>  <compound_id>  (1305) 
30252

>  <target_id>  (1305) 
1

>  <reference_id>  (1305) 
97

>  <inspiration_ids>  (1305) 
[97, 7]

>  <energy_score>  (1305) 
737.9584449947023

>  <distance_score>  (1305) 
10.616623684220123

>  <path>  (1305) 
/opt/xchem-fragalysis-2/maxwin/BulkDock/SCRATCH/511024/C30252-P97/C30252-P97.minimised.mol

>  <scratch_subdir>  (1305) 
/opt/xchem-fragalysis-2/maxwin/BulkDock/SCRATCH/511024/C30252-P97

>  <fragmenstein_runtime>  (1305) 
12.893677473068237

>  <fragmenstein_outcome>  (1305) 
too moved

>  <fragmenstein_mode>  (1305) 
expansion

>  <fragmenstein_error>  (1305) 


$$$$
C30252-P7
     RDKit          3D

 50 52  0  0  0  0  0  0  0  0999 V2000
    8.8602    0.8323   27.6108 C   0  0  0  0  0  0  0  0  0  0  0  0
    7.7659    0.3388   28.5596 C   0  0  0  0  0  0  0  0  0  0  0  0
    7.2632    1.5115   29.4062 C   0  0  0  0  0  0  0  0  0  0  0  0
    8.2824   -0.8040   29.4660 C   0  0  0  0  0  0  0  0  0  0  0  0
    7.6561   -2.1839   29.1832 C   0  0  0  0  0  0  0  0  0  0  0  0
    7.9852   -2.7231   27.7422 C   0  0  0  0  0  0  0  0  0  0  0  0
    9.4127   -2.8625   27.2605 N   0  0  0  0  0  0  0  0  0  0  0  0
    9.4076   -2.9769   25.7680 C   0  0  0  0  0  0  0  0  0  0  0  0
   10.6674   -3.4034   24.9921 C   0  0  0  0  0  0  0  0  0  0  0  0
   11.9540   -3.0655   25.4165 C   0  0  0  0  0  0  0  0  0  0  0  0
   13.0895   -3.2992   24.6096 C   0  0  0  0  0  0  0  0  0  0  0  0
   12.9495   -3.8552   23.3224 C   0  0  0  0  0  0  0  0  0  0  0  0
   13.8507   -4.1131   22.2470 C   0  0  0  0  0  0  0  0  0  0  0  0
   13.1093   -4.5635   21.1813 C   0  0  0  0  0  0  0  0  0  0  0  0
   11.7973   -4.6192   21.5846 N   0  0  0  0  0  0  0  0  0  0  0  0
   11.6687   -4.2041   22.8956 C   0  0  0  0  0  0  0  0  0  0  0  0
   10.5253   -3.9996   23.7054 C   0  0  0  0  0  0  0  0  0  0  0  0
    6.1934   -2.1585   29.5163 N   0  0  0  0  0  0  0  0  0  0  0  0
    5.3351   -3.1679   30.0870 C   0  0  0  0  0  0  0  0  0  0  0  0
    5.5547   -4.3117   30.3678 O   0  0  0  0  0  0  0  0  0  0  0  0
    3.9457   -2.6311   30.4428 C   0  0  0  0  0  0  0  0  0  0  0  0
    2.8636   -3.3784   31.0346 C   0  0  0  0  0  0  0  0  0  0  0  0
    1.8155   -2.5027   31.1982 C   0  0  0  0  0  0  0  0  0  0  0  0
    2.2725   -1.3142   30.7193 N   0  0  0  0  0  0  0  0  0  0  0  0
    3.5541   -1.3462   30.2833 N   0  0  0  0  0  0  0  0  0  0  0  0
    8.4846    1.6386   26.9719 H   0  0  0  0  0  0  0  0  0  0  0  0
    9.2077    0.0280   26.9571 H   0  0  0  0  0  0  0  0  0  0  0  0
    9.7236    1.2172   28.1641 H   0  0  0  0  0  0  0  0  0  0  0  0
    6.9232   -0.0060   27.9493 H   0  0  0  0  0  0  0  0  0  0  0  0
    6.8834    2.3171   28.7687 H   0  0  0  0  0  0  0  0  0  0  0  0
    8.0626    1.9229   30.0319 H   0  0  0  0  0  0  0  0  0  0  0  0
    6.4457    1.1935   30.0621 H   0  0  0  0  0  0  0  0  0  0  0  0
    9.3735   -0.8878   29.3860 H   0  0  0  0  0  0  0  0  0  0  0  0
    8.0811   -0.5607   30.5180 H   0  0  0  0  0  0  0  0  0  0  0  0
    8.0934   -2.9004   29.8908 H   0  0  0  0  0  0  0  0  0  0  0  0
    7.4346   -2.0965   27.0313 H   0  0  0  0  0  0  0  0  0  0  0  0
    7.5692   -3.7321   27.7148 H   0  0  0  0  0  0  0  0  0  0  0  0
    9.7910   -3.7293   27.6405 H   0  0  0  0  0  0  0  0  0  0  0  0
    8.6182   -3.6761   25.4794 H   0  0  0  0  0  0  0  0  0  0  0  0
    9.1611   -1.9805   25.3890 H   0  0  0  0  0  0  0  0  0  0  0  0
   12.0900   -2.5701   26.3763 H   0  0  0  0  0  0  0  0  0  0  0  0
   14.0694   -2.9931   24.9638 H   0  0  0  0  0  0  0  0  0  0  0  0
   14.9161   -3.9286   22.2454 H   0  0  0  0  0  0  0  0  0  0  0  0
   13.3849   -4.8066   20.1658 H   0  0  0  0  0  0  0  0  0  0  0  0
   11.0234   -4.7699   20.9504 H   0  0  0  0  0  0  0  0  0  0  0  0
    9.5384   -4.2282   23.3144 H   0  0  0  0  0  0  0  0  0  0  0  0
    5.6918   -1.2723   29.4922 H   0  0  0  0  0  0  0  0  0  0  0  0
    2.8876   -4.4283   31.2933 H   0  0  0  0  0  0  0  0  0  0  0  0
    0.8165   -2.6207   31.5912 H   0  0  0  0  0  0  0  0  0  0  0  0
    1.7750   -0.4321   30.6583 H   0  0  0  0  0  0  0  0  0  0  0  0
  1  2  1  0
  2  3  1  0
  2  4  1  0
  4  5  1  0
  5  6  1  0
  6  7  1  0
  7  8  1  0
  8  9  1  0
  9 10  2  0
 10 11  1  0
 11 12  2  0
 12 13  1  0
 13 14  2  0
 14 15  1  0
 15 16  1  0
 16 17  2  0
  5 18  1  0
 18 19  1  0
 19 20  2  0
 19 21  1  0
 21 22  1  0
 22 23  2  0
 23 24  1  0
 24 25  1  0
 17  9  1  0
 25 21  2  0
 16 12  1  0
  1 26  1  0
  1 27  1  0
  1 28  1  0
  2 29  1  0
  3 30  1  0
  3 31  1  0
  3 32  1  0
  4 33  1  0
  4 34  1  0
  5 35  1  0
  6 36  1  0
  6 37  1  0
  7 38  1  0
  8 39  1  0
  8 40  1  0
 10 41  1  0
 11 42  1  0
 13 43  1  0
 14 44  1  0
 15 45  1  0
 17 46  1  0
 18 47  1  0
 22 48  1  0
 23 49  1  0
 24 50  1  0
M  END
>  <Energy>  (1306) 
78.544448489863257

>  <compound_id>  (1306) 
30252

>  <target_id>  (1306) 
1

>  <reference_id>  (1306) 
7

>  <inspiration_ids>  (1306) 
[97, 7]

>  <energy_score>  (1306) 
-27.88635488870247

>  <distance_score>  (1306) 
12.138115422807974

>  <path>  (1306) 
/opt/xchem-fragalysis-2/maxwin/BulkDock/SCRATCH/511024/C30252-P7/C30252-P7.minimised.mol

>  <scratch_subdir>  (1306) 
/opt/xchem-fragalysis-2/maxwin/BulkDock/SCRATCH/511024/C30252-P7

>  <fragmenstein_runtime>  (1306) 
15.820735216140747

>  <fragmenstein_outcome>  (1306) 
too moved

>  <fragmenstein_mode>  (1306) 
expansion

>  <fragmenstein_error>  (1306) 


$$$$
C30253-P97
     RDKit          3D

 43 45  0  0  0  0  0  0  0  0999 V2000
    3.6710    1.2079   29.4167 C   0  0  0  0  0  0  0  0  0  0  0  0
    3.1651    0.0279   28.5740 C   0  0  0  0  0  0  0  0  0  0  0  0
    4.3440   -0.9400   28.2074 C   0  0  0  0  0  0  0  0  0  0  0  0
    5.2285   -0.3079   27.0894 C   0  0  0  0  0  0  0  0  0  0  0  0
    6.5483   -0.8571   26.7693 N   0  0  0  0  0  0  0  0  0  0  0  0
    7.8482   -0.2161   26.6769 C   0  0  0  0  0  0  0  0  0  0  0  0
    8.1836    0.9115   26.9186 O   0  0  0  0  0  0  0  0  0  0  0  0
    8.9880   -1.0449   26.0804 C   0  0  0  0  0  0  0  0  0  0  0  0
    9.0930   -2.4446   26.1450 C   0  0  0  0  0  0  0  0  0  0  0  0
   10.1253   -3.1395   25.4902 C   0  0  0  0  0  0  0  0  0  0  0  0
   11.1021   -2.4658   24.7453 C   0  0  0  0  0  0  0  0  0  0  0  0
   11.0545   -1.0631   24.6718 C   0  0  0  0  0  0  0  0  0  0  0  0
   11.8656   -0.0812   24.0281 C   0  0  0  0  0  0  0  0  0  0  0  0
   11.3038    1.1488   24.2627 C   0  0  0  0  0  0  0  0  0  0  0  0
   10.2304    0.9549   25.0894 N   0  0  0  0  0  0  0  0  0  0  0  0
   10.0263   -0.3936   25.3414 C   0  0  0  0  0  0  0  0  0  0  0  0
    1.9734   -0.5041   29.2621 N   0  0  0  0  0  0  0  0  0  0  0  0
    0.5773   -0.1414   29.1544 C   0  0  0  0  0  0  0  0  0  0  0  0
    0.0253    0.6277   28.4211 O   0  0  0  0  0  0  0  0  0  0  0  0
   -0.3003   -0.7727   30.2150 C   0  0  0  0  0  0  0  0  0  0  0  0
   -1.6901   -0.4649   30.4355 C   0  0  0  0  0  0  0  0  0  0  0  0
   -2.0877   -1.2083   31.5199 C   0  0  0  0  0  0  0  0  0  0  0  0
   -0.9797   -1.9027   31.8988 N   0  0  0  0  0  0  0  0  0  0  0  0
    0.1143   -1.6668   31.1377 N   0  0  0  0  0  0  0  0  0  0  0  0
    4.4686    1.7655   28.9200 H   0  0  0  0  0  0  0  0  0  0  0  0
    2.8597    1.9162   29.6211 H   0  0  0  0  0  0  0  0  0  0  0  0
    4.0504    0.8590   30.3838 H   0  0  0  0  0  0  0  0  0  0  0  0
    2.7735    0.4434   27.6362 H   0  0  0  0  0  0  0  0  0  0  0  0
    3.9453   -1.8962   27.8495 H   0  0  0  0  0  0  0  0  0  0  0  0
    4.9485   -1.1554   29.0956 H   0  0  0  0  0  0  0  0  0  0  0  0
    4.6621   -0.3385   26.1511 H   0  0  0  0  0  0  0  0  0  0  0  0
    5.4064    0.7494   27.3040 H   0  0  0  0  0  0  0  0  0  0  0  0
    6.6177   -1.8047   26.4029 H   0  0  0  0  0  0  0  0  0  0  0  0
    8.3670   -3.0115   26.7215 H   0  0  0  0  0  0  0  0  0  0  0  0
   10.1759   -4.2231   25.5710 H   0  0  0  0  0  0  0  0  0  0  0  0
   11.8935   -3.0113   24.2378 H   0  0  0  0  0  0  0  0  0  0  0  0
   12.7560   -0.2656   23.4414 H   0  0  0  0  0  0  0  0  0  0  0  0
   11.5943    2.1429   23.9524 H   0  0  0  0  0  0  0  0  0  0  0  0
    9.6358    1.6752   25.4850 H   0  0  0  0  0  0  0  0  0  0  0  0
    2.0693   -1.2538   29.9434 H   0  0  0  0  0  0  0  0  0  0  0  0
   -2.2849    0.2288   29.8558 H   0  0  0  0  0  0  0  0  0  0  0  0
   -3.0293   -1.2979   32.0409 H   0  0  0  0  0  0  0  0  0  0  0  0
   -0.8867   -2.5532   32.6720 H   0  0  0  0  0  0  0  0  0  0  0  0
  1  2  1  0
  2  3  1  0
  3  4  1  0
  4  5  1  0
  5  6  1  0
  6  7  2  0
  6  8  1  0
  8  9  2  0
  9 10  1  0
 10 11  2  0
 11 12  1  0
 12 13  1  0
 13 14  2  0
 14 15  1  0
 15 16  1  0
  2 17  1  0
 17 18  1  0
 18 19  2  0
 18 20  1  0
 20 21  1  0
 21 22  2  0
 22 23  1  0
 23 24  1  0
 16  8  1  0
 24 20  2  0
 16 12  2  0
  1 25  1  0
  1 26  1  0
  1 27  1  0
  2 28  1  0
  3 29  1  0
  3 30  1  0
  4 31  1  0
  4 32  1  0
  5 33  1  0
  9 34  1  0
 10 35  1  0
 11 36  1  0
 13 37  1  0
 14 38  1  0
 15 39  1  0
 17 40  1  0
 21 41  1  0
 22 42  1  0
 23 43  1  0
M  END
>  <Energy>  (1307) 
55.757761301316393

>  <compound_id>  (1307) 
30253

>  <target_id>  (1307) 
1

>  <reference_id>  (1307) 
97

>  <inspiration_ids>  (1307) 
[97, 7]

>  <energy_score>  (1307) 
-12.169045076697046

>  <distance_score>  (1307) 
10.99149999232363

>  <path>  (1307) 
/opt/xchem-fragalysis-2/maxwin/BulkDock/SCRATCH/511024/C30253-P97/C30253-P97.minimised.mol

>  <scratch_subdir>  (1307) 
/opt/xchem-fragalysis-2/maxwin/BulkDock/SCRATCH/511024/C30253-P97

>  <fragmenstein_runtime>  (1307) 
24.7971453666687

>  <fragmenstein_outcome>  (1307) 
too moved

>  <fragmenstein_mode>  (1307) 
expansion

>  <fragmenstein_error>  (1307) 


$$$$
C30253-P7
     RDKit          3D

 43 45  0  0  0  0  0  0  0  0999 V2000
    5.0944   -1.4445   27.0867 C   0  0  0  0  0  0  0  0  0  0  0  0
    4.1317   -1.6525   25.8763 C   0  0  0  0  0  0  0  0  0  0  0  0
    4.8413   -0.9546   24.6309 C   0  0  0  0  0  0  0  0  0  0  0  0
    4.7981   -1.4308   22.9474 C   0  0  0  0  0  0  0  0  0  0  0  0
    5.4664   -0.2990   21.4790 N   0  0  0  0  0  0  0  0  0  0  0  0
    7.0217   -0.4038   20.4814 C   0  0  0  0  0  0  0  0  0  0  0  0
    7.8233   -1.2984   20.5731 O   0  0  0  0  0  0  0  0  0  0  0  0
    7.6106    0.7579   19.4494 C   0  0  0  0  0  0  0  0  0  0  0  0
    8.2194    1.8706   20.1258 C   0  0  0  0  0  0  0  0  0  0  0  0
    8.8045    2.9725   19.4905 C   0  0  0  0  0  0  0  0  0  0  0  0
    9.0139    2.9450   18.1198 C   0  0  0  0  0  0  0  0  0  0  0  0
    8.6039    1.8019   17.4158 C   0  0  0  0  0  0  0  0  0  0  0  0
    8.9993    1.2814   16.1562 C   0  0  0  0  0  0  0  0  0  0  0  0
    8.3183    0.1026   15.9957 C   0  0  0  0  0  0  0  0  0  0  0  0
    7.3485    0.1036   16.9724 N   0  0  0  0  0  0  0  0  0  0  0  0
    7.8097    0.8136   18.0480 C   0  0  0  0  0  0  0  0  0  0  0  0
    2.7893   -1.3797   26.4623 N   0  0  0  0  0  0  0  0  0  0  0  0
    2.3324   -0.3226   27.3476 C   0  0  0  0  0  0  0  0  0  0  0  0
    2.9015    0.6465   27.7669 O   0  0  0  0  0  0  0  0  0  0  0  0
    0.9213   -0.5658   27.9012 C   0  0  0  0  0  0  0  0  0  0  0  0
    0.0681    0.3927   28.5542 C   0  0  0  0  0  0  0  0  0  0  0  0
   -1.0668   -0.2842   28.9436 C   0  0  0  0  0  0  0  0  0  0  0  0
   -0.8696   -1.5704   28.5448 N   0  0  0  0  0  0  0  0  0  0  0  0
    0.3346   -1.7833   27.9716 N   0  0  0  0  0  0  0  0  0  0  0  0
    4.7763   -2.0444   27.9474 H   0  0  0  0  0  0  0  0  0  0  0  0
    6.1361   -1.6968   26.8707 H   0  0  0  0  0  0  0  0  0  0  0  0
    5.1120   -0.3942   27.3967 H   0  0  0  0  0  0  0  0  0  0  0  0
    4.0601   -2.7090   25.6165 H   0  0  0  0  0  0  0  0  0  0  0  0
    5.8576   -1.2240   24.8605 H   0  0  0  0  0  0  0  0  0  0  0  0
    4.6462    0.1034   24.7316 H   0  0  0  0  0  0  0  0  0  0  0  0
    3.8254   -1.9286   23.0979 H   0  0  0  0  0  0  0  0  0  0  0  0
    5.3062   -2.3104   22.7729 H   0  0  0  0  0  0  0  0  0  0  0  0
    5.0073    0.5661   21.2888 H   0  0  0  0  0  0  0  0  0  0  0  0
    8.2329    1.8773   21.2054 H   0  0  0  0  0  0  0  0  0  0  0  0
    9.1923    3.7980   20.0829 H   0  0  0  0  0  0  0  0  0  0  0  0
    9.5979    3.7227   17.6360 H   0  0  0  0  0  0  0  0  0  0  0  0
    9.7222    1.7001   15.4675 H   0  0  0  0  0  0  0  0  0  0  0  0
    8.3040   -0.6126   15.1790 H   0  0  0  0  0  0  0  0  0  0  0  0
    6.5240   -0.4868   16.9809 H   0  0  0  0  0  0  0  0  0  0  0  0
    2.0593   -2.0893   26.3864 H   0  0  0  0  0  0  0  0  0  0  0  0
    0.2901    1.4407   28.7028 H   0  0  0  0  0  0  0  0  0  0  0  0
   -1.9695    0.0322   29.4448 H   0  0  0  0  0  0  0  0  0  0  0  0
   -1.5069   -2.3590   28.6154 H   0  0  0  0  0  0  0  0  0  0  0  0
  1  2  1  0
  2  3  1  0
  3  4  1  0
  4  5  1  0
  5  6  1  0
  6  7  2  0
  6  8  1  0
  8  9  2  0
  9 10  1  0
 10 11  2  0
 11 12  1  0
 12 13  1  0
 13 14  2  0
 14 15  1  0
 15 16  1  0
  2 17  1  0
 17 18  1  0
 18 19  2  0
 18 20  1  0
 20 21  1  0
 21 22  2  0
 22 23  1  0
 23 24  1  0
 16  8  1  0
 24 20  2  0
 16 12  2  0
  1 25  1  0
  1 26  1  0
  1 27  1  0
  2 28  1  0
  3 29  1  0
  3 30  1  0
  4 31  1  0
  4 32  1  0
  5 33  1  0
  9 34  1  0
 10 35  1  0
 11 36  1  0
 13 37  1  0
 14 38  1  0
 15 39  1  0
 17 40  1  0
 21 41  1  0
 22 42  1  0
 23 43  1  0
M  END
>  <Energy>  (1308) 
281.49679439677567

>  <compound_id>  (1308) 
30253

>  <target_id>  (1308) 
1

>  <reference_id>  (1308) 
7

>  <inspiration_ids>  (1308) 
[97, 7]

>  <energy_score>  (1308) 
213.5699880187662

>  <distance_score>  (1308) 
10.563370634638758

>  <path>  (1308) 
/opt/xchem-fragalysis-2/maxwin/BulkDock/SCRATCH/511024/C30253-P7/C30253-P7.minimised.mol

>  <scratch_subdir>  (1308) 
/opt/xchem-fragalysis-2/maxwin/BulkDock/SCRATCH/511024/C30253-P7

>  <fragmenstein_runtime>  (1308) 
12.719544649124146

>  <fragmenstein_outcome>  (1308) 
too moved

>  <fragmenstein_mode>  (1308) 
expansion

>  <fragmenstein_error>  (1308) 


$$$$
C46194-P97
     RDKit          3D

 44 47  0  0  0  0  0  0  0  0999 V2000
    9.8735    3.6519   16.9094 C   0  0  0  0  0  0  0  0  0  0  0  0
    9.6852    3.5701   18.3168 O   0  0  0  0  0  0  0  0  0  0  0  0
    8.5316    4.1044   18.8282 C   0  0  0  0  0  0  0  0  0  0  0  0
    8.3845    4.0662   20.2171 C   0  0  0  0  0  0  0  0  0  0  0  0
    7.2289    4.5523   20.8728 C   0  0  0  0  0  0  0  0  0  0  0  0
    6.1778    5.0749   20.0960 C   0  0  0  0  0  0  0  0  0  0  0  0
    6.3385    5.1576   18.6977 C   0  0  0  0  0  0  0  0  0  0  0  0
    5.1516    5.7217   18.1783 C   0  0  0  0  0  0  0  0  0  0  0  0
    4.2820    5.9207   19.2254 C   0  0  0  0  0  0  0  0  0  0  0  0
    4.8599    5.4774   20.3982 N   0  0  0  0  0  0  0  0  0  0  0  0
    4.1317    5.4567   21.7101 C   0  0  0  0  0  0  0  0  0  0  0  0
    2.6083    5.0095   21.6889 C   0  0  0  0  0  0  0  0  0  0  0  0
    1.8116    4.6535   22.9185 N   0  0  0  0  0  0  0  0  0  0  0  0
    0.3794    4.4355   23.0974 C   0  0  0  0  0  0  0  0  0  0  0  0
   -0.5290    4.5633   22.3280 O   0  0  0  0  0  0  0  0  0  0  0  0
   -0.0865    3.9312   24.4339 C   0  0  0  0  0  0  0  0  0  0  0  0
   -1.3684    3.3371   24.5292 N   0  0  0  0  0  0  0  0  0  0  0  0
   -1.7405    2.9023   25.7677 N   0  0  0  0  0  0  0  0  0  0  0  0
   -0.7149    3.2907   26.4985 C   0  0  0  0  0  0  0  0  0  0  0  0
    0.3061    3.9197   25.7594 C   0  0  0  0  0  0  0  0  0  0  0  0
    1.3772    4.3726   26.6660 C   0  0  0  0  0  0  0  0  0  0  0  0
    0.7258    4.2377   28.0809 C   0  0  0  0  0  0  0  0  0  0  0  0
   -0.4507    3.2229   27.9455 C   0  0  0  0  0  0  0  0  0  0  0  0
    7.5146    4.6741   18.0702 C   0  0  0  0  0  0  0  0  0  0  0  0
    9.9001    4.6936   16.5732 H   0  0  0  0  0  0  0  0  0  0  0  0
   10.8437    3.2023   16.6768 H   0  0  0  0  0  0  0  0  0  0  0  0
    9.1068    3.0807   16.3757 H   0  0  0  0  0  0  0  0  0  0  0  0
    9.1838    3.6544   20.8284 H   0  0  0  0  0  0  0  0  0  0  0  0
    7.1475    4.4871   21.9522 H   0  0  0  0  0  0  0  0  0  0  0  0
    4.9369    5.9382   17.1402 H   0  0  0  0  0  0  0  0  0  0  0  0
    3.2759    6.3186   19.2213 H   0  0  0  0  0  0  0  0  0  0  0  0
    4.7191    4.8363   22.3837 H   0  0  0  0  0  0  0  0  0  0  0  0
    4.1967    6.4861   22.0827 H   0  0  0  0  0  0  0  0  0  0  0  0
    2.0335    5.8196   21.2220 H   0  0  0  0  0  0  0  0  0  0  0  0
    2.4718    4.1604   21.0128 H   0  0  0  0  0  0  0  0  0  0  0  0
    2.2966    4.3669   23.7586 H   0  0  0  0  0  0  0  0  0  0  0  0
   -2.0151    3.2162   23.7544 H   0  0  0  0  0  0  0  0  0  0  0  0
    1.6879    5.4031   26.4728 H   0  0  0  0  0  0  0  0  0  0  0  0
    2.2487    3.7142   26.5855 H   0  0  0  0  0  0  0  0  0  0  0  0
    1.4499    3.9357   28.8440 H   0  0  0  0  0  0  0  0  0  0  0  0
    0.3212    5.2141   28.3790 H   0  0  0  0  0  0  0  0  0  0  0  0
   -1.3066    3.5225   28.5558 H   0  0  0  0  0  0  0  0  0  0  0  0
   -0.1268    2.2180   28.2339 H   0  0  0  0  0  0  0  0  0  0  0  0
    7.5698    4.7444   16.9905 H   0  0  0  0  0  0  0  0  0  0  0  0
  1  2  1  0
  2  3  1  0
  3  4  2  0
  4  5  1  0
  5  6  2  0
  6  7  1  0
  7  8  1  0
  8  9  2  0
  9 10  1  0
 10 11  1  0
 11 12  1  0
 12 13  1  0
 13 14  1  0
 14 15  2  0
 14 16  1  0
 16 17  1  0
 17 18  1  0
 18 19  2  0
 19 20  1  0
 20 21  1  0
 21 22  1  0
 22 23  1  0
  7 24  2  0
 24  3  1  0
 10  6  1  0
 20 16  2  0
 23 19  1  0
  1 25  1  0
  1 26  1  0
  1 27  1  0
  4 28  1  0
  5 29  1  0
  8 30  1  0
  9 31  1  0
 11 32  1  0
 11 33  1  0
 12 34  1  0
 12 35  1  0
 13 36  1  0
 17 37  1  0
 21 38  1  0
 21 39  1  0
 22 40  1  0
 22 41  1  0
 23 42  1  0
 23 43  1  0
 24 44  1  0
M  END
>  <Energy>  (1309) 
40.769034693688859

>  <compound_id>  (1309) 
46194

>  <target_id>  (1309) 
1

>  <reference_id>  (1309) 
97

>  <inspiration_ids>  (1309) 
[97, 7]

>  <energy_score>  (1309) 
5.177506657589959

>  <distance_score>  (1309) 
13.152217763452429

>  <path>  (1309) 
/opt/xchem-fragalysis-2/maxwin/BulkDock/SCRATCH/511024/C46194-P97/C46194-P97.minimised.mol

>  <scratch_subdir>  (1309) 
/opt/xchem-fragalysis-2/maxwin/BulkDock/SCRATCH/511024/C46194-P97

>  <fragmenstein_runtime>  (1309) 
13.899194955825806

>  <fragmenstein_outcome>  (1309) 
too moved

>  <fragmenstein_mode>  (1309) 
expansion

>  <fragmenstein_error>  (1309) 


$$$$
C46194-P7
     RDKit          3D

 44 47  0  0  0  0  0  0  0  0999 V2000
    9.9481    2.5377   15.4899 C   0  0  0  0  0  0  0  0  0  0  0  0
    9.1138    1.4095   15.7193 O   0  0  0  0  0  0  0  0  0  0  0  0
    8.2386    1.5066   16.7558 C   0  0  0  0  0  0  0  0  0  0  0  0
    7.5150    0.3884   17.0293 C   0  0  0  0  0  0  0  0  0  0  0  0
    6.8587    0.2202   18.2800 C   0  0  0  0  0  0  0  0  0  0  0  0
    6.8372    1.1667   19.3506 C   0  0  0  0  0  0  0  0  0  0  0  0
    7.3649    2.4234   18.8563 C   0  0  0  0  0  0  0  0  0  0  0  0
    7.3917    3.3299   19.8916 C   0  0  0  0  0  0  0  0  0  0  0  0
    6.9566    2.6828   21.0044 C   0  0  0  0  0  0  0  0  0  0  0  0
    6.3630    1.2564   20.8324 N   0  0  0  0  0  0  0  0  0  0  0  0
    4.9016    0.6044   21.9229 C   0  0  0  0  0  0  0  0  0  0  0  0
    4.9323    0.0289   23.8371 C   0  0  0  0  0  0  0  0  0  0  0  0
    4.0414   -0.0314   25.2295 N   0  0  0  0  0  0  0  0  0  0  0  0
    3.5404   -1.1551   25.9861 C   0  0  0  0  0  0  0  0  0  0  0  0
    3.7109   -2.3287   25.8408 O   0  0  0  0  0  0  0  0  0  0  0  0
    2.5580   -0.8097   27.0826 C   0  0  0  0  0  0  0  0  0  0  0  0
    1.8461   -1.8661   27.6813 N   0  0  0  0  0  0  0  0  0  0  0  0
    0.9152   -1.5208   28.6194 N   0  0  0  0  0  0  0  0  0  0  0  0
    1.0109   -0.2053   28.6029 C   0  0  0  0  0  0  0  0  0  0  0  0
    1.9764    0.2868   27.7016 C   0  0  0  0  0  0  0  0  0  0  0  0
    1.9678    1.7637   27.7169 C   0  0  0  0  0  0  0  0  0  0  0  0
    1.1471    2.0979   29.0045 C   0  0  0  0  0  0  0  0  0  0  0  0
    0.2770    0.8448   29.3281 C   0  0  0  0  0  0  0  0  0  0  0  0
    8.0044    2.5849   17.5753 C   0  0  0  0  0  0  0  0  0  0  0  0
    9.3566    3.4093   15.1908 H   0  0  0  0  0  0  0  0  0  0  0  0
   10.5627    2.7612   16.3685 H   0  0  0  0  0  0  0  0  0  0  0  0
   10.6221    2.2928   14.6635 H   0  0  0  0  0  0  0  0  0  0  0  0
    7.4722   -0.3942   16.2740 H   0  0  0  0  0  0  0  0  0  0  0  0
    6.2473   -0.6561   18.3255 H   0  0  0  0  0  0  0  0  0  0  0  0
    7.7307    4.3563   19.8610 H   0  0  0  0  0  0  0  0  0  0  0  0
    6.6347    3.2853   21.8395 H   0  0  0  0  0  0  0  0  0  0  0  0
    5.0499   -0.4175   21.6265 H   0  0  0  0  0  0  0  0  0  0  0  0
    3.9308    0.9814   21.6200 H   0  0  0  0  0  0  0  0  0  0  0  0
    4.1946    0.8535   23.8176 H   0  0  0  0  0  0  0  0  0  0  0  0
    4.8232   -1.0536   23.6602 H   0  0  0  0  0  0  0  0  0  0  0  0
    3.7621    0.8212   25.6846 H   0  0  0  0  0  0  0  0  0  0  0  0
    1.9493   -2.8384   27.4103 H   0  0  0  0  0  0  0  0  0  0  0  0
    2.9729    2.1912   27.7689 H   0  0  0  0  0  0  0  0  0  0  0  0
    1.4572    2.1521   26.8293 H   0  0  0  0  0  0  0  0  0  0  0  0
    1.8449    2.2703   29.8347 H   0  0  0  0  0  0  0  0  0  0  0  0
    0.5446    3.0041   28.8888 H   0  0  0  0  0  0  0  0  0  0  0  0
    0.2212    0.6668   30.4051 H   0  0  0  0  0  0  0  0  0  0  0  0
   -0.7327    0.9634   28.9223 H   0  0  0  0  0  0  0  0  0  0  0  0
    8.4651    3.5475   17.3772 H   0  0  0  0  0  0  0  0  0  0  0  0
  1  2  1  0
  2  3  1  0
  3  4  2  0
  4  5  1  0
  5  6  2  0
  6  7  1  0
  7  8  1  0
  8  9  2  0
  9 10  1  0
 10 11  1  0
 11 12  1  0
 12 13  1  0
 13 14  1  0
 14 15  2  0
 14 16  1  0
 16 17  1  0
 17 18  1  0
 18 19  2  0
 19 20  1  0
 20 21  1  0
 21 22  1  0
 22 23  1  0
  7 24  2  0
 24  3  1  0
 10  6  1  0
 20 16  2  0
 23 19  1  0
  1 25  1  0
  1 26  1  0
  1 27  1  0
  4 28  1  0
  5 29  1  0
  8 30  1  0
  9 31  1  0
 11 32  1  0
 11 33  1  0
 12 34  1  0
 12 35  1  0
 13 36  1  0
 17 37  1  0
 21 38  1  0
 21 39  1  0
 22 40  1  0
 22 41  1  0
 23 42  1  0
 23 43  1  0
 24 44  1  0
M  END
>  <Energy>  (1310) 
311.71473639571047

>  <compound_id>  (1310) 
46194

>  <target_id>  (1310) 
1

>  <reference_id>  (1310) 
7

>  <inspiration_ids>  (1310) 
[97, 7]

>  <energy_score>  (1310) 
276.12320835961276

>  <distance_score>  (1310) 
11.813216980056243

>  <path>  (1310) 
/opt/xchem-fragalysis-2/maxwin/BulkDock/SCRATCH/511024/C46194-P7/C46194-P7.minimised.mol

>  <scratch_subdir>  (1310) 
/opt/xchem-fragalysis-2/maxwin/BulkDock/SCRATCH/511024/C46194-P7

>  <fragmenstein_runtime>  (1310) 
12.130357265472412

>  <fragmenstein_outcome>  (1310) 
too moved

>  <fragmenstein_mode>  (1310) 
expansion

>  <fragmenstein_error>  (1310) 


$$$$
C46195-P97
     RDKit          3D

 50 53  0  0  0  0  0  0  0  0999 V2000
    2.6156   -7.4477   14.8308 C   0  0  0  0  0  0  0  0  0  0  0  0
    3.4301   -6.6560   15.6986 O   0  0  0  0  0  0  0  0  0  0  0  0
    2.6993   -5.5970   16.1729 C   0  0  0  0  0  0  0  0  0  0  0  0
    2.0824   -5.7609   17.3919 C   0  0  0  0  0  0  0  0  0  0  0  0
    1.3357   -4.7185   17.9236 C   0  0  0  0  0  0  0  0  0  0  0  0
    1.3367   -3.4568   17.2998 C   0  0  0  0  0  0  0  0  0  0  0  0
    1.9652   -3.2739   16.0686 C   0  0  0  0  0  0  0  0  0  0  0  0
    1.7658   -1.9211   15.6917 C   0  0  0  0  0  0  0  0  0  0  0  0
    1.0933   -1.2895   16.7172 C   0  0  0  0  0  0  0  0  0  0  0  0
    0.9157   -2.1964   17.7588 N   0  0  0  0  0  0  0  0  0  0  0  0
    0.9642   -1.6113   19.3763 C   0  0  0  0  0  0  0  0  0  0  0  0
    0.4096   -2.8998   21.0741 C   0  0  0  0  0  0  0  0  0  0  0  0
   -0.5481   -2.5469   22.7171 N   0  0  0  0  0  0  0  0  0  0  0  0
   -2.3824   -2.1848   23.0980 C   0  0  0  0  0  0  0  0  0  0  0  0
   -3.1176   -2.0424   22.1750 O   0  0  0  0  0  0  0  0  0  0  0  0
   -3.4441   -2.1663   24.8253 C   0  0  0  0  0  0  0  0  0  0  0  0
   -3.8892   -0.9381   25.1704 N   0  0  0  0  0  0  0  0  0  0  0  0
   -3.1461   -0.0266   25.8373 N   0  0  0  0  0  0  0  0  0  0  0  0
   -2.7614   -0.4839   27.0031 C   0  0  0  0  0  0  0  0  0  0  0  0
   -2.8538   -1.8500   26.6867 C   0  0  0  0  0  0  0  0  0  0  0  0
   -1.8347   -2.5758   27.8694 C   0  0  0  0  0  0  0  0  0  0  0  0
   -0.7638   -1.8399   28.7043 C   0  0  0  0  0  0  0  0  0  0  0  0
    0.0490   -0.7396   28.0582 C   0  0  0  0  0  0  0  0  0  0  0  0
   -0.7084    0.5757   27.9447 C   0  0  0  0  0  0  0  0  0  0  0  0
   -2.2212    0.4286   28.0381 C   0  0  0  0  0  0  0  0  0  0  0  0
    2.6083   -4.3806   15.4773 C   0  0  0  0  0  0  0  0  0  0  0  0
    3.2266   -8.2787   14.4660 H   0  0  0  0  0  0  0  0  0  0  0  0
    1.7575   -7.8678   15.3671 H   0  0  0  0  0  0  0  0  0  0  0  0
    2.2784   -6.8689   13.9638 H   0  0  0  0  0  0  0  0  0  0  0  0
    2.1522   -6.7032   17.9249 H   0  0  0  0  0  0  0  0  0  0  0  0
    0.8341   -4.8577   18.8672 H   0  0  0  0  0  0  0  0  0  0  0  0
    2.1072   -1.4490   14.7802 H   0  0  0  0  0  0  0  0  0  0  0  0
    0.7971   -0.2573   16.8443 H   0  0  0  0  0  0  0  0  0  0  0  0
    0.2799   -0.8116   19.1227 H   0  0  0  0  0  0  0  0  0  0  0  0
    1.9064   -1.1545   19.1929 H   0  0  0  0  0  0  0  0  0  0  0  0
    1.3054   -3.2276   21.6515 H   0  0  0  0  0  0  0  0  0  0  0  0
    0.3064   -3.9481   20.7048 H   0  0  0  0  0  0  0  0  0  0  0  0
   -0.1040   -2.7212   23.5140 H   0  0  0  0  0  0  0  0  0  0  0  0
   -3.2776    0.9486   25.5959 H   0  0  0  0  0  0  0  0  0  0  0  0
   -1.3063   -3.4429   27.4700 H   0  0  0  0  0  0  0  0  0  0  0  0
   -2.5306   -2.9046   28.6617 H   0  0  0  0  0  0  0  0  0  0  0  0
   -0.0581   -2.6101   29.0485 H   0  0  0  0  0  0  0  0  0  0  0  0
   -1.2103   -1.4721   29.6376 H   0  0  0  0  0  0  0  0  0  0  0  0
    0.4211   -1.0640   27.0882 H   0  0  0  0  0  0  0  0  0  0  0  0
    0.9492   -0.5597   28.6602 H   0  0  0  0  0  0  0  0  0  0  0  0
   -0.3828    1.2433   28.7528 H   0  0  0  0  0  0  0  0  0  0  0  0
   -0.4253    1.0764   27.0109 H   0  0  0  0  0  0  0  0  0  0  0  0
   -2.5262    0.1143   29.0402 H   0  0  0  0  0  0  0  0  0  0  0  0
   -2.6448    1.4331   27.9089 H   0  0  0  0  0  0  0  0  0  0  0  0
    3.0244   -4.2623   14.4896 H   0  0  0  0  0  0  0  0  0  0  0  0
  1  2  1  0
  2  3  1  0
  3  4  2  0
  4  5  1  0
  5  6  2  0
  6  7  1  0
  7  8  1  0
  8  9  2  0
  9 10  1  0
 10 11  1  0
 11 12  1  0
 12 13  1  0
 13 14  1  0
 14 15  2  0
 14 16  1  0
 16 17  2  0
 17 18  1  0
 18 19  1  0
 19 20  2  0
 20 21  1  0
 21 22  1  0
 22 23  1  0
 23 24  1  0
 24 25  1  0
  7 26  2  0
 26  3  1  0
 10  6  1  0
 20 16  1  0
 25 19  1  0
  1 27  1  0
  1 28  1  0
  1 29  1  0
  4 30  1  0
  5 31  1  0
  8 32  1  0
  9 33  1  0
 11 34  1  0
 11 35  1  0
 12 36  1  0
 12 37  1  0
 13 38  1  0
 18 39  1  0
 21 40  1  0
 21 41  1  0
 22 42  1  0
 22 43  1  0
 23 44  1  0
 23 45  1  0
 24 46  1  0
 24 47  1  0
 25 48  1  0
 25 49  1  0
 26 50  1  0
M  END
>  <Energy>  (1311) 
695.90478945256996

>  <compound_id>  (1311) 
46195

>  <target_id>  (1311) 
1

>  <reference_id>  (1311) 
97

>  <inspiration_ids>  (1311) 
[97, 7]

>  <energy_score>  (1311) 
592.8751662077436

>  <distance_score>  (1311) 
12.942228464098342

>  <path>  (1311) 
/opt/xchem-fragalysis-2/maxwin/BulkDock/SCRATCH/511024/C46195-P97/C46195-P97.minimised.mol

>  <scratch_subdir>  (1311) 
/opt/xchem-fragalysis-2/maxwin/BulkDock/SCRATCH/511024/C46195-P97

>  <fragmenstein_runtime>  (1311) 
12.57911729812622

>  <fragmenstein_outcome>  (1311) 
too moved

>  <fragmenstein_mode>  (1311) 
expansion

>  <fragmenstein_error>  (1311) 


$$$$
C46195-P7
     RDKit          3D

 50 53  0  0  0  0  0  0  0  0999 V2000
   10.5589    1.4086   23.3091 C   0  0  0  0  0  0  0  0  0  0  0  0
    9.6229    0.8230   22.4010 O   0  0  0  0  0  0  0  0  0  0  0  0
    8.7558   -0.0593   22.9812 C   0  0  0  0  0  0  0  0  0  0  0  0
    7.4998   -0.1534   22.3990 C   0  0  0  0  0  0  0  0  0  0  0  0
    6.4626   -0.8574   23.0238 C   0  0  0  0  0  0  0  0  0  0  0  0
    6.7519   -1.5266   24.2150 C   0  0  0  0  0  0  0  0  0  0  0  0
    8.0820   -1.6704   24.6317 C   0  0  0  0  0  0  0  0  0  0  0  0
    8.0821   -2.6386   25.6546 C   0  0  0  0  0  0  0  0  0  0  0  0
    6.7688   -2.9365   25.9409 C   0  0  0  0  0  0  0  0  0  0  0  0
    5.9515   -2.1079   25.2015 N   0  0  0  0  0  0  0  0  0  0  0  0
    4.5175   -1.8124   25.5162 C   0  0  0  0  0  0  0  0  0  0  0  0
    4.0115   -2.3318   26.9090 C   0  0  0  0  0  0  0  0  0  0  0  0
    2.6979   -1.9586   27.4845 N   0  0  0  0  0  0  0  0  0  0  0  0
    1.6939   -2.7611   28.1651 C   0  0  0  0  0  0  0  0  0  0  0  0
    1.6407   -3.9428   28.3609 O   0  0  0  0  0  0  0  0  0  0  0  0
    0.5828   -1.9192   28.8161 C   0  0  0  0  0  0  0  0  0  0  0  0
    0.3551   -0.6272   28.4900 N   0  0  0  0  0  0  0  0  0  0  0  0
   -0.6555   -0.2357   29.2941 N   0  0  0  0  0  0  0  0  0  0  0  0
   -1.0609   -1.1720   30.1948 C   0  0  0  0  0  0  0  0  0  0  0  0
   -0.3258   -2.3057   29.8978 C   0  0  0  0  0  0  0  0  0  0  0  0
   -0.4291   -3.6049   30.6352 C   0  0  0  0  0  0  0  0  0  0  0  0
   -0.5709   -3.4226   32.1487 C   0  0  0  0  0  0  0  0  0  0  0  0
   -1.9828   -3.0725   32.6269 C   0  0  0  0  0  0  0  0  0  0  0  0
   -2.7973   -2.1280   31.7403 C   0  0  0  0  0  0  0  0  0  0  0  0
   -2.0482   -0.8807   31.2709 C   0  0  0  0  0  0  0  0  0  0  0  0
    9.0957   -0.9057   24.0304 C   0  0  0  0  0  0  0  0  0  0  0  0
   10.9897    2.2877   22.8201 H   0  0  0  0  0  0  0  0  0  0  0  0
   10.0727    1.7455   24.2315 H   0  0  0  0  0  0  0  0  0  0  0  0
   11.3767    0.7154   23.5274 H   0  0  0  0  0  0  0  0  0  0  0  0
    7.2804    0.4163   21.5048 H   0  0  0  0  0  0  0  0  0  0  0  0
    5.4519   -0.7978   22.6414 H   0  0  0  0  0  0  0  0  0  0  0  0
    8.9431   -3.0501   26.1642 H   0  0  0  0  0  0  0  0  0  0  0  0
    6.3659   -3.6136   26.6817 H   0  0  0  0  0  0  0  0  0  0  0  0
    4.4266   -0.7218   25.4786 H   0  0  0  0  0  0  0  0  0  0  0  0
    3.9277   -2.2529   24.7089 H   0  0  0  0  0  0  0  0  0  0  0  0
    4.7306   -2.0122   27.6730 H   0  0  0  0  0  0  0  0  0  0  0  0
    4.0327   -3.4281   26.9010 H   0  0  0  0  0  0  0  0  0  0  0  0
    2.3744   -0.9950   27.4349 H   0  0  0  0  0  0  0  0  0  0  0  0
   -0.9859    0.7189   29.2050 H   0  0  0  0  0  0  0  0  0  0  0  0
    0.4818   -4.1882   30.4679 H   0  0  0  0  0  0  0  0  0  0  0  0
   -1.2598   -4.1967   30.2332 H   0  0  0  0  0  0  0  0  0  0  0  0
    0.1317   -2.6555   32.5002 H   0  0  0  0  0  0  0  0  0  0  0  0
   -0.2731   -4.3540   32.6471 H   0  0  0  0  0  0  0  0  0  0  0  0
   -1.9073   -2.6453   33.6348 H   0  0  0  0  0  0  0  0  0  0  0  0
   -2.5560   -4.0020   32.7389 H   0  0  0  0  0  0  0  0  0  0  0  0
   -3.1761   -2.6918   30.8790 H   0  0  0  0  0  0  0  0  0  0  0  0
   -3.6802   -1.8134   32.3109 H   0  0  0  0  0  0  0  0  0  0  0  0
   -2.7755   -0.1494   30.8991 H   0  0  0  0  0  0  0  0  0  0  0  0
   -1.5361   -0.4103   32.1189 H   0  0  0  0  0  0  0  0  0  0  0  0
   10.1111   -0.9797   24.4034 H   0  0  0  0  0  0  0  0  0  0  0  0
  1  2  1  0
  2  3  1  0
  3  4  2  0
  4  5  1  0
  5  6  2  0
  6  7  1  0
  7  8  1  0
  8  9  2  0
  9 10  1  0
 10 11  1  0
 11 12  1  0
 12 13  1  0
 13 14  1  0
 14 15  2  0
 14 16  1  0
 16 17  2  0
 17 18  1  0
 18 19  1  0
 19 20  2  0
 20 21  1  0
 21 22  1  0
 22 23  1  0
 23 24  1  0
 24 25  1  0
  7 26  2  0
 26  3  1  0
 10  6  1  0
 20 16  1  0
 25 19  1  0
  1 27  1  0
  1 28  1  0
  1 29  1  0
  4 30  1  0
  5 31  1  0
  8 32  1  0
  9 33  1  0
 11 34  1  0
 11 35  1  0
 12 36  1  0
 12 37  1  0
 13 38  1  0
 18 39  1  0
 21 40  1  0
 21 41  1  0
 22 42  1  0
 22 43  1  0
 23 44  1  0
 23 45  1  0
 24 46  1  0
 24 47  1  0
 25 48  1  0
 25 49  1  0
 26 50  1  0
M  END
>  <Energy>  (1312) 
82.353776151634705

>  <compound_id>  (1312) 
46195

>  <target_id>  (1312) 
1

>  <reference_id>  (1312) 
7

>  <inspiration_ids>  (1312) 
[97, 7]

>  <energy_score>  (1312) 
-20.675847093193454

>  <distance_score>  (1312) 
12.373389936069335

>  <path>  (1312) 
/opt/xchem-fragalysis-2/maxwin/BulkDock/SCRATCH/511024/C46195-P7/C46195-P7.minimised.mol

>  <scratch_subdir>  (1312) 
/opt/xchem-fragalysis-2/maxwin/BulkDock/SCRATCH/511024/C46195-P7

>  <fragmenstein_runtime>  (1312) 
18.127832889556885

>  <fragmenstein_outcome>  (1312) 
too moved

>  <fragmenstein_mode>  (1312) 
expansion

>  <fragmenstein_error>  (1312) 


$$$$
C46194-P97
     RDKit          3D

 44 47  0  0  0  0  0  0  0  0999 V2000
    9.8735    3.6519   16.9094 C   0  0  0  0  0  0  0  0  0  0  0  0
    9.6852    3.5701   18.3168 O   0  0  0  0  0  0  0  0  0  0  0  0
    8.5316    4.1044   18.8282 C   0  0  0  0  0  0  0  0  0  0  0  0
    8.3845    4.0662   20.2171 C   0  0  0  0  0  0  0  0  0  0  0  0
    7.2289    4.5523   20.8728 C   0  0  0  0  0  0  0  0  0  0  0  0
    6.1778    5.0749   20.0960 C   0  0  0  0  0  0  0  0  0  0  0  0
    6.3385    5.1576   18.6977 C   0  0  0  0  0  0  0  0  0  0  0  0
    5.1516    5.7217   18.1783 C   0  0  0  0  0  0  0  0  0  0  0  0
    4.2820    5.9207   19.2254 C   0  0  0  0  0  0  0  0  0  0  0  0
    4.8599    5.4774   20.3982 N   0  0  0  0  0  0  0  0  0  0  0  0
    4.1317    5.4567   21.7101 C   0  0  0  0  0  0  0  0  0  0  0  0
    2.6083    5.0095   21.6889 C   0  0  0  0  0  0  0  0  0  0  0  0
    1.8116    4.6535   22.9185 N   0  0  0  0  0  0  0  0  0  0  0  0
    0.3794    4.4355   23.0974 C   0  0  0  0  0  0  0  0  0  0  0  0
   -0.5290    4.5633   22.3280 O   0  0  0  0  0  0  0  0  0  0  0  0
   -0.0865    3.9312   24.4339 C   0  0  0  0  0  0  0  0  0  0  0  0
   -1.3684    3.3371   24.5292 N   0  0  0  0  0  0  0  0  0  0  0  0
   -1.7405    2.9023   25.7677 N   0  0  0  0  0  0  0  0  0  0  0  0
   -0.7149    3.2907   26.4985 C   0  0  0  0  0  0  0  0  0  0  0  0
    0.3061    3.9197   25.7594 C   0  0  0  0  0  0  0  0  0  0  0  0
    1.3772    4.3726   26.6660 C   0  0  0  0  0  0  0  0  0  0  0  0
    0.7258    4.2377   28.0809 C   0  0  0  0  0  0  0  0  0  0  0  0
   -0.4507    3.2229   27.9455 C   0  0  0  0  0  0  0  0  0  0  0  0
    7.5146    4.6741   18.0702 C   0  0  0  0  0  0  0  0  0  0  0  0
    9.9001    4.6936   16.5732 H   0  0  0  0  0  0  0  0  0  0  0  0
   10.8437    3.2023   16.6768 H   0  0  0  0  0  0  0  0  0  0  0  0
    9.1068    3.0807   16.3757 H   0  0  0  0  0  0  0  0  0  0  0  0
    9.1838    3.6544   20.8284 H   0  0  0  0  0  0  0  0  0  0  0  0
    7.1475    4.4871   21.9522 H   0  0  0  0  0  0  0  0  0  0  0  0
    4.9369    5.9382   17.1402 H   0  0  0  0  0  0  0  0  0  0  0  0
    3.2759    6.3186   19.2213 H   0  0  0  0  0  0  0  0  0  0  0  0
    4.7191    4.8363   22.3837 H   0  0  0  0  0  0  0  0  0  0  0  0
    4.1967    6.4861   22.0827 H   0  0  0  0  0  0  0  0  0  0  0  0
    2.0335    5.8196   21.2220 H   0  0  0  0  0  0  0  0  0  0  0  0
    2.4718    4.1604   21.0128 H   0  0  0  0  0  0  0  0  0  0  0  0
    2.2966    4.3669   23.7586 H   0  0  0  0  0  0  0  0  0  0  0  0
   -2.0151    3.2162   23.7544 H   0  0  0  0  0  0  0  0  0  0  0  0
    1.6879    5.4031   26.4728 H   0  0  0  0  0  0  0  0  0  0  0  0
    2.2487    3.7142   26.5855 H   0  0  0  0  0  0  0  0  0  0  0  0
    1.4499    3.9357   28.8440 H   0  0  0  0  0  0  0  0  0  0  0  0
    0.3212    5.2141   28.3790 H   0  0  0  0  0  0  0  0  0  0  0  0
   -1.3066    3.5225   28.5558 H   0  0  0  0  0  0  0  0  0  0  0  0
   -0.1268    2.2180   28.2339 H   0  0  0  0  0  0  0  0  0  0  0  0
    7.5698    4.7444   16.9905 H   0  0  0  0  0  0  0  0  0  0  0  0
  1  2  1  0
  2  3  1  0
  3  4  2  0
  4  5  1  0
  5  6  2  0
  6  7  1  0
  7  8  1  0
  8  9  2  0
  9 10  1  0
 10 11  1  0
 11 12  1  0
 12 13  1  0
 13 14  1  0
 14 15  2  0
 14 16  1  0
 16 17  1  0
 17 18  1  0
 18 19  2  0
 19 20  1  0
 20 21  1  0
 21 22  1  0
 22 23  1  0
  7 24  2  0
 24  3  1  0
 10  6  1  0
 20 16  2  0
 23 19  1  0
  1 25  1  0
  1 26  1  0
  1 27  1  0
  4 28  1  0
  5 29  1  0
  8 30  1  0
  9 31  1  0
 11 32  1  0
 11 33  1  0
 12 34  1  0
 12 35  1  0
 13 36  1  0
 17 37  1  0
 21 38  1  0
 21 39  1  0
 22 40  1  0
 22 41  1  0
 23 42  1  0
 23 43  1  0
 24 44  1  0
M  END
>  <Energy>  (1313) 
40.769034693688859

>  <compound_id>  (1313) 
46194

>  <target_id>  (1313) 
1

>  <reference_id>  (1313) 
97

>  <inspiration_ids>  (1313) 
[97, 7]

>  <energy_score>  (1313) 
5.177506657589959

>  <distance_score>  (1313) 
13.152217763452429

>  <path>  (1313) 
/opt/xchem-fragalysis-2/maxwin/BulkDock/SCRATCH/511024/C46194-P97/C46194-P97.minimised.mol

>  <scratch_subdir>  (1313) 
/opt/xchem-fragalysis-2/maxwin/BulkDock/SCRATCH/511024/C46194-P97

>  <fragmenstein_runtime>  (1313) 
13.386885166168213

>  <fragmenstein_outcome>  (1313) 
too moved

>  <fragmenstein_mode>  (1313) 
expansion

>  <fragmenstein_error>  (1313) 


$$$$
C46194-P7
     RDKit          3D

 44 47  0  0  0  0  0  0  0  0999 V2000
    9.9481    2.5377   15.4899 C   0  0  0  0  0  0  0  0  0  0  0  0
    9.1138    1.4095   15.7193 O   0  0  0  0  0  0  0  0  0  0  0  0
    8.2386    1.5066   16.7558 C   0  0  0  0  0  0  0  0  0  0  0  0
    7.5150    0.3884   17.0293 C   0  0  0  0  0  0  0  0  0  0  0  0
    6.8587    0.2202   18.2800 C   0  0  0  0  0  0  0  0  0  0  0  0
    6.8372    1.1667   19.3506 C   0  0  0  0  0  0  0  0  0  0  0  0
    7.3649    2.4234   18.8563 C   0  0  0  0  0  0  0  0  0  0  0  0
    7.3917    3.3299   19.8916 C   0  0  0  0  0  0  0  0  0  0  0  0
    6.9566    2.6828   21.0044 C   0  0  0  0  0  0  0  0  0  0  0  0
    6.3630    1.2564   20.8324 N   0  0  0  0  0  0  0  0  0  0  0  0
    4.9016    0.6044   21.9229 C   0  0  0  0  0  0  0  0  0  0  0  0
    4.9323    0.0289   23.8371 C   0  0  0  0  0  0  0  0  0  0  0  0
    4.0414   -0.0314   25.2295 N   0  0  0  0  0  0  0  0  0  0  0  0
    3.5404   -1.1551   25.9861 C   0  0  0  0  0  0  0  0  0  0  0  0
    3.7109   -2.3287   25.8408 O   0  0  0  0  0  0  0  0  0  0  0  0
    2.5580   -0.8097   27.0826 C   0  0  0  0  0  0  0  0  0  0  0  0
    1.8461   -1.8661   27.6813 N   0  0  0  0  0  0  0  0  0  0  0  0
    0.9152   -1.5208   28.6194 N   0  0  0  0  0  0  0  0  0  0  0  0
    1.0109   -0.2053   28.6029 C   0  0  0  0  0  0  0  0  0  0  0  0
    1.9764    0.2868   27.7016 C   0  0  0  0  0  0  0  0  0  0  0  0
    1.9678    1.7637   27.7169 C   0  0  0  0  0  0  0  0  0  0  0  0
    1.1471    2.0979   29.0045 C   0  0  0  0  0  0  0  0  0  0  0  0
    0.2770    0.8448   29.3281 C   0  0  0  0  0  0  0  0  0  0  0  0
    8.0044    2.5849   17.5753 C   0  0  0  0  0  0  0  0  0  0  0  0
    9.3566    3.4093   15.1908 H   0  0  0  0  0  0  0  0  0  0  0  0
   10.5627    2.7612   16.3685 H   0  0  0  0  0  0  0  0  0  0  0  0
   10.6221    2.2928   14.6635 H   0  0  0  0  0  0  0  0  0  0  0  0
    7.4722   -0.3942   16.2740 H   0  0  0  0  0  0  0  0  0  0  0  0
    6.2473   -0.6561   18.3255 H   0  0  0  0  0  0  0  0  0  0  0  0
    7.7307    4.3563   19.8610 H   0  0  0  0  0  0  0  0  0  0  0  0
    6.6347    3.2853   21.8395 H   0  0  0  0  0  0  0  0  0  0  0  0
    5.0499   -0.4175   21.6265 H   0  0  0  0  0  0  0  0  0  0  0  0
    3.9308    0.9814   21.6200 H   0  0  0  0  0  0  0  0  0  0  0  0
    4.1946    0.8535   23.8176 H   0  0  0  0  0  0  0  0  0  0  0  0
    4.8232   -1.0536   23.6602 H   0  0  0  0  0  0  0  0  0  0  0  0
    3.7621    0.8212   25.6846 H   0  0  0  0  0  0  0  0  0  0  0  0
    1.9493   -2.8384   27.4103 H   0  0  0  0  0  0  0  0  0  0  0  0
    2.9729    2.1912   27.7689 H   0  0  0  0  0  0  0  0  0  0  0  0
    1.4572    2.1521   26.8293 H   0  0  0  0  0  0  0  0  0  0  0  0
    1.8449    2.2703   29.8347 H   0  0  0  0  0  0  0  0  0  0  0  0
    0.5446    3.0041   28.8888 H   0  0  0  0  0  0  0  0  0  0  0  0
    0.2212    0.6668   30.4051 H   0  0  0  0  0  0  0  0  0  0  0  0
   -0.7327    0.9634   28.9223 H   0  0  0  0  0  0  0  0  0  0  0  0
    8.4651    3.5475   17.3772 H   0  0  0  0  0  0  0  0  0  0  0  0
  1  2  1  0
  2  3  1  0
  3  4  2  0
  4  5  1  0
  5  6  2  0
  6  7  1  0
  7  8  1  0
  8  9  2  0
  9 10  1  0
 10 11  1  0
 11 12  1  0
 12 13  1  0
 13 14  1  0
 14 15  2  0
 14 16  1  0
 16 17  1  0
 17 18  1  0
 18 19  2  0
 19 20  1  0
 20 21  1  0
 21 22  1  0
 22 23  1  0
  7 24  2  0
 24  3  1  0
 10  6  1  0
 20 16  2  0
 23 19  1  0
  1 25  1  0
  1 26  1  0
  1 27  1  0
  4 28  1  0
  5 29  1  0
  8 30  1  0
  9 31  1  0
 11 32  1  0
 11 33  1  0
 12 34  1  0
 12 35  1  0
 13 36  1  0
 17 37  1  0
 21 38  1  0
 21 39  1  0
 22 40  1  0
 22 41  1  0
 23 42  1  0
 23 43  1  0
 24 44  1  0
M  END
>  <Energy>  (1314) 
311.71473639571047

>  <compound_id>  (1314) 
46194

>  <target_id>  (1314) 
1

>  <reference_id>  (1314) 
7

>  <inspiration_ids>  (1314) 
[97, 7]

>  <energy_score>  (1314) 
276.12320835961276

>  <distance_score>  (1314) 
11.813216980056243

>  <path>  (1314) 
/opt/xchem-fragalysis-2/maxwin/BulkDock/SCRATCH/511024/C46194-P7/C46194-P7.minimised.mol

>  <scratch_subdir>  (1314) 
/opt/xchem-fragalysis-2/maxwin/BulkDock/SCRATCH/511024/C46194-P7

>  <fragmenstein_runtime>  (1314) 
11.347363710403442

>  <fragmenstein_outcome>  (1314) 
too moved

>  <fragmenstein_mode>  (1314) 
expansion

>  <fragmenstein_error>  (1314) 


$$$$
C46195-P97
     RDKit          3D

 50 53  0  0  0  0  0  0  0  0999 V2000
    2.6156   -7.4477   14.8308 C   0  0  0  0  0  0  0  0  0  0  0  0
    3.4301   -6.6560   15.6986 O   0  0  0  0  0  0  0  0  0  0  0  0
    2.6993   -5.5970   16.1729 C   0  0  0  0  0  0  0  0  0  0  0  0
    2.0824   -5.7609   17.3919 C   0  0  0  0  0  0  0  0  0  0  0  0
    1.3357   -4.7185   17.9236 C   0  0  0  0  0  0  0  0  0  0  0  0
    1.3367   -3.4568   17.2998 C   0  0  0  0  0  0  0  0  0  0  0  0
    1.9652   -3.2739   16.0686 C   0  0  0  0  0  0  0  0  0  0  0  0
    1.7658   -1.9211   15.6917 C   0  0  0  0  0  0  0  0  0  0  0  0
    1.0933   -1.2895   16.7172 C   0  0  0  0  0  0  0  0  0  0  0  0
    0.9157   -2.1964   17.7588 N   0  0  0  0  0  0  0  0  0  0  0  0
    0.9642   -1.6113   19.3763 C   0  0  0  0  0  0  0  0  0  0  0  0
    0.4096   -2.8998   21.0741 C   0  0  0  0  0  0  0  0  0  0  0  0
   -0.5481   -2.5469   22.7171 N   0  0  0  0  0  0  0  0  0  0  0  0
   -2.3824   -2.1848   23.0980 C   0  0  0  0  0  0  0  0  0  0  0  0
   -3.1176   -2.0424   22.1750 O   0  0  0  0  0  0  0  0  0  0  0  0
   -3.4441   -2.1663   24.8253 C   0  0  0  0  0  0  0  0  0  0  0  0
   -3.8892   -0.9381   25.1704 N   0  0  0  0  0  0  0  0  0  0  0  0
   -3.1461   -0.0266   25.8373 N   0  0  0  0  0  0  0  0  0  0  0  0
   -2.7614   -0.4839   27.0031 C   0  0  0  0  0  0  0  0  0  0  0  0
   -2.8538   -1.8500   26.6867 C   0  0  0  0  0  0  0  0  0  0  0  0
   -1.8347   -2.5758   27.8694 C   0  0  0  0  0  0  0  0  0  0  0  0
   -0.7638   -1.8399   28.7043 C   0  0  0  0  0  0  0  0  0  0  0  0
    0.0490   -0.7396   28.0582 C   0  0  0  0  0  0  0  0  0  0  0  0
   -0.7084    0.5757   27.9447 C   0  0  0  0  0  0  0  0  0  0  0  0
   -2.2212    0.4286   28.0381 C   0  0  0  0  0  0  0  0  0  0  0  0
    2.6083   -4.3806   15.4773 C   0  0  0  0  0  0  0  0  0  0  0  0
    3.2266   -8.2787   14.4660 H   0  0  0  0  0  0  0  0  0  0  0  0
    1.7575   -7.8678   15.3671 H   0  0  0  0  0  0  0  0  0  0  0  0
    2.2784   -6.8689   13.9638 H   0  0  0  0  0  0  0  0  0  0  0  0
    2.1522   -6.7032   17.9249 H   0  0  0  0  0  0  0  0  0  0  0  0
    0.8341   -4.8577   18.8672 H   0  0  0  0  0  0  0  0  0  0  0  0
    2.1072   -1.4490   14.7802 H   0  0  0  0  0  0  0  0  0  0  0  0
    0.7971   -0.2573   16.8443 H   0  0  0  0  0  0  0  0  0  0  0  0
    0.2799   -0.8116   19.1227 H   0  0  0  0  0  0  0  0  0  0  0  0
    1.9064   -1.1545   19.1929 H   0  0  0  0  0  0  0  0  0  0  0  0
    1.3054   -3.2276   21.6515 H   0  0  0  0  0  0  0  0  0  0  0  0
    0.3064   -3.9481   20.7048 H   0  0  0  0  0  0  0  0  0  0  0  0
   -0.1040   -2.7212   23.5140 H   0  0  0  0  0  0  0  0  0  0  0  0
   -3.2776    0.9486   25.5959 H   0  0  0  0  0  0  0  0  0  0  0  0
   -1.3063   -3.4429   27.4700 H   0  0  0  0  0  0  0  0  0  0  0  0
   -2.5306   -2.9046   28.6617 H   0  0  0  0  0  0  0  0  0  0  0  0
   -0.0581   -2.6101   29.0485 H   0  0  0  0  0  0  0  0  0  0  0  0
   -1.2103   -1.4721   29.6376 H   0  0  0  0  0  0  0  0  0  0  0  0
    0.4211   -1.0640   27.0882 H   0  0  0  0  0  0  0  0  0  0  0  0
    0.9492   -0.5597   28.6602 H   0  0  0  0  0  0  0  0  0  0  0  0
   -0.3828    1.2433   28.7528 H   0  0  0  0  0  0  0  0  0  0  0  0
   -0.4253    1.0764   27.0109 H   0  0  0  0  0  0  0  0  0  0  0  0
   -2.5262    0.1143   29.0402 H   0  0  0  0  0  0  0  0  0  0  0  0
   -2.6448    1.4331   27.9089 H   0  0  0  0  0  0  0  0  0  0  0  0
    3.0244   -4.2623   14.4896 H   0  0  0  0  0  0  0  0  0  0  0  0
  1  2  1  0
  2  3  1  0
  3  4  2  0
  4  5  1  0
  5  6  2  0
  6  7  1  0
  7  8  1  0
  8  9  2  0
  9 10  1  0
 10 11  1  0
 11 12  1  0
 12 13  1  0
 13 14  1  0
 14 15  2  0
 14 16  1  0
 16 17  2  0
 17 18  1  0
 18 19  1  0
 19 20  2  0
 20 21  1  0
 21 22  1  0
 22 23  1  0
 23 24  1  0
 24 25  1  0
  7 26  2  0
 26  3  1  0
 10  6  1  0
 20 16  1  0
 25 19  1  0
  1 27  1  0
  1 28  1  0
  1 29  1  0
  4 30  1  0
  5 31  1  0
  8 32  1  0
  9 33  1  0
 11 34  1  0
 11 35  1  0
 12 36  1  0
 12 37  1  0
 13 38  1  0
 18 39  1  0
 21 40  1  0
 21 41  1  0
 22 42  1  0
 22 43  1  0
 23 44  1  0
 23 45  1  0
 24 46  1  0
 24 47  1  0
 25 48  1  0
 25 49  1  0
 26 50  1  0
M  END
>  <Energy>  (1315) 
695.90478945256996

>  <compound_id>  (1315) 
46195

>  <target_id>  (1315) 
1

>  <reference_id>  (1315) 
97

>  <inspiration_ids>  (1315) 
[97, 7]

>  <energy_score>  (1315) 
592.8751662077436

>  <distance_score>  (1315) 
12.942228464098342

>  <path>  (1315) 
/opt/xchem-fragalysis-2/maxwin/BulkDock/SCRATCH/511024/C46195-P97/C46195-P97.minimised.mol

>  <scratch_subdir>  (1315) 
/opt/xchem-fragalysis-2/maxwin/BulkDock/SCRATCH/511024/C46195-P97

>  <fragmenstein_runtime>  (1315) 
13.199718475341797

>  <fragmenstein_outcome>  (1315) 
too moved

>  <fragmenstein_mode>  (1315) 
expansion

>  <fragmenstein_error>  (1315) 


$$$$
C46195-P7
     RDKit          3D

 50 53  0  0  0  0  0  0  0  0999 V2000
   10.5589    1.4086   23.3091 C   0  0  0  0  0  0  0  0  0  0  0  0
    9.6229    0.8230   22.4010 O   0  0  0  0  0  0  0  0  0  0  0  0
    8.7558   -0.0593   22.9812 C   0  0  0  0  0  0  0  0  0  0  0  0
    7.4998   -0.1534   22.3990 C   0  0  0  0  0  0  0  0  0  0  0  0
    6.4626   -0.8574   23.0238 C   0  0  0  0  0  0  0  0  0  0  0  0
    6.7519   -1.5266   24.2150 C   0  0  0  0  0  0  0  0  0  0  0  0
    8.0820   -1.6704   24.6317 C   0  0  0  0  0  0  0  0  0  0  0  0
    8.0821   -2.6386   25.6546 C   0  0  0  0  0  0  0  0  0  0  0  0
    6.7688   -2.9365   25.9409 C   0  0  0  0  0  0  0  0  0  0  0  0
    5.9515   -2.1079   25.2015 N   0  0  0  0  0  0  0  0  0  0  0  0
    4.5175   -1.8124   25.5162 C   0  0  0  0  0  0  0  0  0  0  0  0
    4.0115   -2.3318   26.9090 C   0  0  0  0  0  0  0  0  0  0  0  0
    2.6979   -1.9586   27.4845 N   0  0  0  0  0  0  0  0  0  0  0  0
    1.6939   -2.7611   28.1651 C   0  0  0  0  0  0  0  0  0  0  0  0
    1.6407   -3.9428   28.3609 O   0  0  0  0  0  0  0  0  0  0  0  0
    0.5828   -1.9192   28.8161 C   0  0  0  0  0  0  0  0  0  0  0  0
    0.3551   -0.6272   28.4900 N   0  0  0  0  0  0  0  0  0  0  0  0
   -0.6555   -0.2357   29.2941 N   0  0  0  0  0  0  0  0  0  0  0  0
   -1.0609   -1.1720   30.1948 C   0  0  0  0  0  0  0  0  0  0  0  0
   -0.3258   -2.3057   29.8978 C   0  0  0  0  0  0  0  0  0  0  0  0
   -0.4291   -3.6049   30.6352 C   0  0  0  0  0  0  0  0  0  0  0  0
   -0.5709   -3.4226   32.1487 C   0  0  0  0  0  0  0  0  0  0  0  0
   -1.9828   -3.0725   32.6269 C   0  0  0  0  0  0  0  0  0  0  0  0
   -2.7973   -2.1280   31.7403 C   0  0  0  0  0  0  0  0  0  0  0  0
   -2.0482   -0.8807   31.2709 C   0  0  0  0  0  0  0  0  0  0  0  0
    9.0957   -0.9057   24.0304 C   0  0  0  0  0  0  0  0  0  0  0  0
   10.9897    2.2877   22.8201 H   0  0  0  0  0  0  0  0  0  0  0  0
   10.0727    1.7455   24.2315 H   0  0  0  0  0  0  0  0  0  0  0  0
   11.3767    0.7154   23.5274 H   0  0  0  0  0  0  0  0  0  0  0  0
    7.2804    0.4163   21.5048 H   0  0  0  0  0  0  0  0  0  0  0  0
    5.4519   -0.7978   22.6414 H   0  0  0  0  0  0  0  0  0  0  0  0
    8.9431   -3.0501   26.1642 H   0  0  0  0  0  0  0  0  0  0  0  0
    6.3659   -3.6136   26.6817 H   0  0  0  0  0  0  0  0  0  0  0  0
    4.4266   -0.7218   25.4786 H   0  0  0  0  0  0  0  0  0  0  0  0
    3.9277   -2.2529   24.7089 H   0  0  0  0  0  0  0  0  0  0  0  0
    4.7306   -2.0122   27.6730 H   0  0  0  0  0  0  0  0  0  0  0  0
    4.0327   -3.4281   26.9010 H   0  0  0  0  0  0  0  0  0  0  0  0
    2.3744   -0.9950   27.4349 H   0  0  0  0  0  0  0  0  0  0  0  0
   -0.9859    0.7189   29.2050 H   0  0  0  0  0  0  0  0  0  0  0  0
    0.4818   -4.1882   30.4679 H   0  0  0  0  0  0  0  0  0  0  0  0
   -1.2598   -4.1967   30.2332 H   0  0  0  0  0  0  0  0  0  0  0  0
    0.1317   -2.6555   32.5002 H   0  0  0  0  0  0  0  0  0  0  0  0
   -0.2731   -4.3540   32.6471 H   0  0  0  0  0  0  0  0  0  0  0  0
   -1.9073   -2.6453   33.6348 H   0  0  0  0  0  0  0  0  0  0  0  0
   -2.5560   -4.0020   32.7389 H   0  0  0  0  0  0  0  0  0  0  0  0
   -3.1761   -2.6918   30.8790 H   0  0  0  0  0  0  0  0  0  0  0  0
   -3.6802   -1.8134   32.3109 H   0  0  0  0  0  0  0  0  0  0  0  0
   -2.7755   -0.1494   30.8991 H   0  0  0  0  0  0  0  0  0  0  0  0
   -1.5361   -0.4103   32.1189 H   0  0  0  0  0  0  0  0  0  0  0  0
   10.1111   -0.9797   24.4034 H   0  0  0  0  0  0  0  0  0  0  0  0
  1  2  1  0
  2  3  1  0
  3  4  2  0
  4  5  1  0
  5  6  2  0
  6  7  1  0
  7  8  1  0
  8  9  2  0
  9 10  1  0
 10 11  1  0
 11 12  1  0
 12 13  1  0
 13 14  1  0
 14 15  2  0
 14 16  1  0
 16 17  2  0
 17 18  1  0
 18 19  1  0
 19 20  2  0
 20 21  1  0
 21 22  1  0
 22 23  1  0
 23 24  1  0
 24 25  1  0
  7 26  2  0
 26  3  1  0
 10  6  1  0
 20 16  1  0
 25 19  1  0
  1 27  1  0
  1 28  1  0
  1 29  1  0
  4 30  1  0
  5 31  1  0
  8 32  1  0
  9 33  1  0
 11 34  1  0
 11 35  1  0
 12 36  1  0
 12 37  1  0
 13 38  1  0
 18 39  1  0
 21 40  1  0
 21 41  1  0
 22 42  1  0
 22 43  1  0
 23 44  1  0
 23 45  1  0
 24 46  1  0
 24 47  1  0
 25 48  1  0
 25 49  1  0
 26 50  1  0
M  END
>  <Energy>  (1316) 
82.353776151634705

>  <compound_id>  (1316) 
46195

>  <target_id>  (1316) 
1

>  <reference_id>  (1316) 
7

>  <inspiration_ids>  (1316) 
[97, 7]

>  <energy_score>  (1316) 
-20.675847093193454

>  <distance_score>  (1316) 
12.373389936069335

>  <path>  (1316) 
/opt/xchem-fragalysis-2/maxwin/BulkDock/SCRATCH/511024/C46195-P7/C46195-P7.minimised.mol

>  <scratch_subdir>  (1316) 
/opt/xchem-fragalysis-2/maxwin/BulkDock/SCRATCH/511024/C46195-P7

>  <fragmenstein_runtime>  (1316) 
18.868882179260254

>  <fragmenstein_outcome>  (1316) 
too moved

>  <fragmenstein_mode>  (1316) 
expansion

>  <fragmenstein_error>  (1316) 


$$$$
C30255-P97
     RDKit          3D

 33 35  0  0  0  0  0  0  0  0999 V2000
   -2.5296   -4.7152   24.5455 O   0  0  0  0  0  0  0  0  0  0  0  0
   -2.7778   -3.5989   24.0775 C   0  0  0  0  0  0  0  0  0  0  0  0
   -1.5953   -2.5426   23.1026 N   0  0  0  0  0  0  0  0  0  0  0  0
    0.3333   -2.8138   22.6605 C   0  0  0  0  0  0  0  0  0  0  0  0
    2.2719   -2.7140   23.1761 C   0  0  0  0  0  0  0  0  0  0  0  0
    3.4123   -1.9973   24.1080 N   0  0  0  0  0  0  0  0  0  0  0  0
    3.2055   -1.5211   25.4104 C   0  0  0  0  0  0  0  0  0  0  0  0
    4.3664   -1.1914   26.0669 C   0  0  0  0  0  0  0  0  0  0  0  0
    5.4368   -1.5801   25.2611 C   0  0  0  0  0  0  0  0  0  0  0  0
    6.9012   -1.7063   25.4893 C   0  0  0  0  0  0  0  0  0  0  0  0
    7.7390   -2.2386   24.4858 C   0  0  0  0  0  0  0  0  0  0  0  0
    9.4163   -2.5380   24.7463 Cl  0  0  0  0  0  0  0  0  0  0  0  0
    7.2231   -2.4666   23.2249 C   0  0  0  0  0  0  0  0  0  0  0  0
    5.8933   -2.1254   22.9139 C   0  0  0  0  0  0  0  0  0  0  0  0
    4.8776   -1.8983   23.9821 C   0  0  0  0  0  0  0  0  0  0  0  0
   -4.2309   -3.2617   24.2995 C   0  0  0  0  0  0  0  0  0  0  0  0
   -5.2894   -3.9772   23.6160 C   0  0  0  0  0  0  0  0  0  0  0  0
   -6.4218   -3.8852   24.3917 C   0  0  0  0  0  0  0  0  0  0  0  0
   -6.0316   -3.2132   25.4994 N   0  0  0  0  0  0  0  0  0  0  0  0
   -4.7508   -2.7823   25.4492 N   0  0  0  0  0  0  0  0  0  0  0  0
   -2.0672   -1.7401   22.7789 H   0  0  0  0  0  0  0  0  0  0  0  0
    0.4818   -3.9197   22.8600 H   0  0  0  0  0  0  0  0  0  0  0  0
    0.3598   -2.8858   21.5895 H   0  0  0  0  0  0  0  0  0  0  0  0
    2.2882   -3.5047   23.8688 H   0  0  0  0  0  0  0  0  0  0  0  0
    2.7365   -3.2554   22.3915 H   0  0  0  0  0  0  0  0  0  0  0  0
    2.2265   -1.4805   25.8461 H   0  0  0  0  0  0  0  0  0  0  0  0
    4.4196   -0.8529   27.0910 H   0  0  0  0  0  0  0  0  0  0  0  0
    7.2815   -1.4768   26.4785 H   0  0  0  0  0  0  0  0  0  0  0  0
    7.7967   -2.8810   22.4168 H   0  0  0  0  0  0  0  0  0  0  0  0
    5.6106   -2.2029   21.8704 H   0  0  0  0  0  0  0  0  0  0  0  0
   -5.1800   -4.5693   22.7168 H   0  0  0  0  0  0  0  0  0  0  0  0
   -7.4174   -4.2918   24.2820 H   0  0  0  0  0  0  0  0  0  0  0  0
   -6.5774   -3.0288   26.3336 H   0  0  0  0  0  0  0  0  0  0  0  0
  1  2  2  0
  2  3  1  0
  3  4  1  0
  4  5  1  0
  5  6  1  0
  6  7  1  0
  7  8  2  0
  8  9  1  0
  9 10  2  0
 10 11  1  0
 11 12  1  0
 11 13  2  0
 13 14  1  0
 14 15  2  0
  2 16  1  0
 16 17  1  0
 17 18  2  0
 18 19  1  0
 19 20  1  0
 15  6  1  0
 20 16  2  0
 15  9  1  0
  3 21  1  0
  4 22  1  0
  4 23  1  0
  5 24  1  0
  5 25  1  0
  7 26  1  0
  8 27  1  0
 10 28  1  0
 13 29  1  0
 14 30  1  0
 17 31  1  0
 18 32  1  0
 19 33  1  0
M  END
>  <Energy>  (1317) 
387.37582872024859

>  <compound_id>  (1317) 
30255

>  <target_id>  (1317) 
1

>  <reference_id>  (1317) 
97

>  <inspiration_ids>  (1317) 
[97, 7]

>  <energy_score>  (1317) 
331.34698479441954

>  <distance_score>  (1317) 
13.205074323809095

>  <path>  (1317) 
/opt/xchem-fragalysis-2/maxwin/BulkDock/SCRATCH/511024/C30255-P97/C30255-P97.minimised.mol

>  <scratch_subdir>  (1317) 
/opt/xchem-fragalysis-2/maxwin/BulkDock/SCRATCH/511024/C30255-P97

>  <fragmenstein_runtime>  (1317) 
9.443802118301392

>  <fragmenstein_outcome>  (1317) 
too moved

>  <fragmenstein_mode>  (1317) 
expansion

>  <fragmenstein_error>  (1317) 


$$$$
C30255-P7
     RDKit          3D

 33 35  0  0  0  0  0  0  0  0999 V2000
    6.4489   -1.3629   30.2575 O   0  0  0  0  0  0  0  0  0  0  0  0
    5.9791   -1.7340   29.2201 C   0  0  0  0  0  0  0  0  0  0  0  0
    6.5909   -1.8996   27.9097 N   0  0  0  0  0  0  0  0  0  0  0  0
    7.9528   -1.5701   27.4249 C   0  0  0  0  0  0  0  0  0  0  0  0
    8.7747   -2.6592   26.6654 C   0  0  0  0  0  0  0  0  0  0  0  0
    9.9887   -2.2598   25.9154 N   0  0  0  0  0  0  0  0  0  0  0  0
   10.4141   -0.9737   25.6819 C   0  0  0  0  0  0  0  0  0  0  0  0
   11.5429   -1.0098   24.8949 C   0  0  0  0  0  0  0  0  0  0  0  0
   11.8419   -2.3689   24.6228 C   0  0  0  0  0  0  0  0  0  0  0  0
   12.8409   -3.0014   23.8433 C   0  0  0  0  0  0  0  0  0  0  0  0
   12.8002   -4.3794   23.6613 C   0  0  0  0  0  0  0  0  0  0  0  0
   13.8631   -5.1209   22.5218 Cl  0  0  0  0  0  0  0  0  0  0  0  0
   11.8739   -5.1470   24.3590 C   0  0  0  0  0  0  0  0  0  0  0  0
   10.9097   -4.5455   25.1930 C   0  0  0  0  0  0  0  0  0  0  0  0
   10.8682   -3.1403   25.2709 C   0  0  0  0  0  0  0  0  0  0  0  0
    4.4474   -1.9798   29.2575 C   0  0  0  0  0  0  0  0  0  0  0  0
    3.4624   -1.9364   28.2175 C   0  0  0  0  0  0  0  0  0  0  0  0
    2.2303   -2.0965   28.8220 C   0  0  0  0  0  0  0  0  0  0  0  0
    2.4900   -2.2224   30.1474 N   0  0  0  0  0  0  0  0  0  0  0  0
    3.8005   -2.1839   30.4391 N   0  0  0  0  0  0  0  0  0  0  0  0
    5.9091   -2.3162   27.2733 H   0  0  0  0  0  0  0  0  0  0  0  0
    7.8084   -0.7017   26.7804 H   0  0  0  0  0  0  0  0  0  0  0  0
    8.5298   -1.2252   28.2905 H   0  0  0  0  0  0  0  0  0  0  0  0
    8.1534   -3.1361   25.9096 H   0  0  0  0  0  0  0  0  0  0  0  0
    9.0932   -3.4290   27.3776 H   0  0  0  0  0  0  0  0  0  0  0  0
    9.8924   -0.1206   26.0924 H   0  0  0  0  0  0  0  0  0  0  0  0
   12.0913   -0.1493   24.5352 H   0  0  0  0  0  0  0  0  0  0  0  0
   13.5684   -2.3947   23.3122 H   0  0  0  0  0  0  0  0  0  0  0  0
   11.8714   -6.2285   24.2438 H   0  0  0  0  0  0  0  0  0  0  0  0
   10.1859   -5.1593   25.7199 H   0  0  0  0  0  0  0  0  0  0  0  0
    3.6314   -1.7750   27.1601 H   0  0  0  0  0  0  0  0  0  0  0  0
    1.2265   -2.1145   28.4214 H   0  0  0  0  0  0  0  0  0  0  0  0
    1.8334   -2.3394   30.9118 H   0  0  0  0  0  0  0  0  0  0  0  0
  1  2  2  0
  2  3  1  0
  3  4  1  0
  4  5  1  0
  5  6  1  0
  6  7  1  0
  7  8  2  0
  8  9  1  0
  9 10  2  0
 10 11  1  0
 11 12  1  0
 11 13  2  0
 13 14  1  0
 14 15  2  0
  2 16  1  0
 16 17  1  0
 17 18  2  0
 18 19  1  0
 19 20  1  0
 15  6  1  0
 20 16  2  0
 15  9  1  0
  3 21  1  0
  4 22  1  0
  4 23  1  0
  5 24  1  0
  5 25  1  0
  7 26  1  0
  8 27  1  0
 10 28  1  0
 13 29  1  0
 14 30  1  0
 17 31  1  0
 18 32  1  0
 19 33  1  0
M  END
>  <Energy>  (1318) 
72.518227132558039

>  <compound_id>  (1318) 
30255

>  <target_id>  (1318) 
1

>  <reference_id>  (1318) 
7

>  <inspiration_ids>  (1318) 
[97, 7]

>  <energy_score>  (1318) 
16.48938320672778

>  <distance_score>  (1318) 
13.05308706100986

>  <path>  (1318) 
/opt/xchem-fragalysis-2/maxwin/BulkDock/SCRATCH/511024/C30255-P7/C30255-P7.minimised.mol

>  <scratch_subdir>  (1318) 
/opt/xchem-fragalysis-2/maxwin/BulkDock/SCRATCH/511024/C30255-P7

>  <fragmenstein_runtime>  (1318) 
12.240540027618408

>  <fragmenstein_outcome>  (1318) 
too moved

>  <fragmenstein_mode>  (1318) 
expansion

>  <fragmenstein_error>  (1318) 


$$$$
C25404-P97
     RDKit          3D

 39 41  0  0  0  0  0  0  0  0999 V2000
    6.2620   -5.6981   20.3420 O   0  0  0  0  0  0  0  0  0  0  0  0
    6.8777   -4.6871   20.6406 C   0  0  0  0  0  0  0  0  0  0  0  0
    6.1261   -3.4823   21.4098 C   0  0  0  0  0  0  0  0  0  0  0  0
    5.0848   -3.9993   22.4018 C   0  0  0  0  0  0  0  0  0  0  0  0
    4.4890   -3.0193   23.3909 C   0  0  0  0  0  0  0  0  0  0  0  0
    3.4473   -3.2393   24.2592 C   0  0  0  0  0  0  0  0  0  0  0  0
    3.4540   -2.1742   25.1905 C   0  0  0  0  0  0  0  0  0  0  0  0
    4.4727   -1.3450   24.9529 N   0  0  0  0  0  0  0  0  0  0  0  0
    4.9150   -1.7614   23.7338 N   0  0  0  0  0  0  0  0  0  0  0  0
    8.5363   -4.3243   20.4845 N   0  0  0  0  0  0  0  0  0  0  0  0
   10.0293   -5.4171   19.9266 C   0  0  0  0  0  0  0  0  0  0  0  0
   11.9231   -5.0584   20.2583 C   0  0  0  0  0  0  0  0  0  0  0  0
   12.8834   -4.4622   19.1361 C   0  0  0  0  0  0  0  0  0  0  0  0
   12.7950   -4.3522   17.7512 C   0  0  0  0  0  0  0  0  0  0  0  0
   13.7353   -3.3916   17.3115 C   0  0  0  0  0  0  0  0  0  0  0  0
   13.9453   -2.7282   16.0916 C   0  0  0  0  0  0  0  0  0  0  0  0
   14.9721   -1.7900   15.9919 C   0  0  0  0  0  0  0  0  0  0  0  0
   15.7670   -1.4995   17.0963 C   0  0  0  0  0  0  0  0  0  0  0  0
   15.5514   -2.1228   18.3304 C   0  0  0  0  0  0  0  0  0  0  0  0
   14.5177   -3.0604   18.4095 C   0  0  0  0  0  0  0  0  0  0  0  0
   14.0226   -3.7633   19.4893 N   0  0  0  0  0  0  0  0  0  0  0  0
    6.8738   -2.8866   21.9443 H   0  0  0  0  0  0  0  0  0  0  0  0
    5.5791   -2.8447   20.7066 H   0  0  0  0  0  0  0  0  0  0  0  0
    5.5348   -4.8141   22.9850 H   0  0  0  0  0  0  0  0  0  0  0  0
    4.2606   -4.4565   21.8382 H   0  0  0  0  0  0  0  0  0  0  0  0
    2.8516   -4.1346   24.2466 H   0  0  0  0  0  0  0  0  0  0  0  0
    2.8263   -2.0180   26.0565 H   0  0  0  0  0  0  0  0  0  0  0  0
    5.5786   -1.1686   23.2519 H   0  0  0  0  0  0  0  0  0  0  0  0
    8.7297   -3.4473   20.8999 H   0  0  0  0  0  0  0  0  0  0  0  0
    9.9229   -5.7157   18.9227 H   0  0  0  0  0  0  0  0  0  0  0  0
   10.0380   -6.2486   20.4701 H   0  0  0  0  0  0  0  0  0  0  0  0
   12.0606   -4.4161   21.1358 H   0  0  0  0  0  0  0  0  0  0  0  0
   12.3780   -6.0083   20.5461 H   0  0  0  0  0  0  0  0  0  0  0  0
   12.0172   -4.7646   17.1218 H   0  0  0  0  0  0  0  0  0  0  0  0
   13.2975   -2.9213   15.2435 H   0  0  0  0  0  0  0  0  0  0  0  0
   15.1473   -1.2817   15.0473 H   0  0  0  0  0  0  0  0  0  0  0  0
   16.5651   -0.7661   17.0030 H   0  0  0  0  0  0  0  0  0  0  0  0
   16.1584   -1.8718   19.1941 H   0  0  0  0  0  0  0  0  0  0  0  0
   14.3477   -3.6397   20.4383 H   0  0  0  0  0  0  0  0  0  0  0  0
  1  2  2  0
  2  3  1  0
  3  4  1  0
  4  5  1  0
  5  6  2  0
  6  7  1  0
  7  8  2  0
  8  9  1  0
  2 10  1  0
 10 11  1  0
 11 12  1  0
 12 13  1  0
 13 14  2  0
 14 15  1  0
 15 16  2  0
 16 17  1  0
 17 18  2  0
 18 19  1  0
 19 20  2  0
 20 21  1  0
  9  5  1  0
 21 13  1  0
 20 15  1  0
  3 22  1  0
  3 23  1  0
  4 24  1  0
  4 25  1  0
  6 26  1  0
  7 27  1  0
  9 28  1  0
 10 29  1  0
 11 30  1  0
 11 31  1  0
 12 32  1  0
 12 33  1  0
 14 34  1  0
 16 35  1  0
 17 36  1  0
 18 37  1  0
 19 38  1  0
 21 39  1  0
M  END
>  <Energy>  (1319) 
173.84679403110457

>  <compound_id>  (1319) 
25404

>  <target_id>  (1319) 
1

>  <reference_id>  (1319) 
97

>  <inspiration_ids>  (1319) 
[97, 7]

>  <energy_score>  (1319) 
141.8475477907461

>  <distance_score>  (1319) 
12.686780612880776

>  <path>  (1319) 
/opt/xchem-fragalysis-2/maxwin/BulkDock/SCRATCH/511024/C25404-P97/C25404-P97.minimised.mol

>  <scratch_subdir>  (1319) 
/opt/xchem-fragalysis-2/maxwin/BulkDock/SCRATCH/511024/C25404-P97

>  <fragmenstein_runtime>  (1319) 
6.692566156387329

>  <fragmenstein_outcome>  (1319) 
too moved

>  <fragmenstein_mode>  (1319) 
expansion

>  <fragmenstein_error>  (1319) 


$$$$
C25404-P7
     RDKit          3D

 39 41  0  0  0  0  0  0  0  0999 V2000
    5.0325    1.1181   27.5655 O   0  0  0  0  0  0  0  0  0  0  0  0
    4.3794    0.6389   26.6797 C   0  0  0  0  0  0  0  0  0  0  0  0
    2.9134    0.1694   27.0213 C   0  0  0  0  0  0  0  0  0  0  0  0
    2.5238    0.2023   28.5316 C   0  0  0  0  0  0  0  0  0  0  0  0
    1.0486   -0.0419   28.9107 C   0  0  0  0  0  0  0  0  0  0  0  0
    0.1165   -1.0028   28.5577 C   0  0  0  0  0  0  0  0  0  0  0  0
   -1.0356   -0.7433   29.3348 C   0  0  0  0  0  0  0  0  0  0  0  0
   -0.8684    0.3085   30.1358 N   0  0  0  0  0  0  0  0  0  0  0  0
    0.3971    0.7046   29.8758 N   0  0  0  0  0  0  0  0  0  0  0  0
    4.6730    0.4871   25.2542 N   0  0  0  0  0  0  0  0  0  0  0  0
    5.8183    0.9629   24.4422 C   0  0  0  0  0  0  0  0  0  0  0  0
    6.5719   -0.0739   23.5443 C   0  0  0  0  0  0  0  0  0  0  0  0
    6.9650    0.3996   22.1523 C   0  0  0  0  0  0  0  0  0  0  0  0
    6.5890   -0.1071   20.9194 C   0  0  0  0  0  0  0  0  0  0  0  0
    7.1323    0.7180   19.8992 C   0  0  0  0  0  0  0  0  0  0  0  0
    7.0140    0.7514   18.4960 C   0  0  0  0  0  0  0  0  0  0  0  0
    7.6629    1.7515   17.7678 C   0  0  0  0  0  0  0  0  0  0  0  0
    8.3806    2.7452   18.4260 C   0  0  0  0  0  0  0  0  0  0  0  0
    8.4896    2.7514   19.8239 C   0  0  0  0  0  0  0  0  0  0  0  0
    7.8679    1.7137   20.5354 C   0  0  0  0  0  0  0  0  0  0  0  0
    7.8005    1.4663   21.8943 N   0  0  0  0  0  0  0  0  0  0  0  0
    2.7586   -0.8351   26.6150 H   0  0  0  0  0  0  0  0  0  0  0  0
    2.2616    0.8841   26.5111 H   0  0  0  0  0  0  0  0  0  0  0  0
    2.8166    1.1771   28.9436 H   0  0  0  0  0  0  0  0  0  0  0  0
    3.1279   -0.5456   29.0611 H   0  0  0  0  0  0  0  0  0  0  0  0
    0.2595   -1.8056   27.8480 H   0  0  0  0  0  0  0  0  0  0  0  0
   -1.9746   -1.2820   29.3459 H   0  0  0  0  0  0  0  0  0  0  0  0
    0.7684    1.4893   30.4010 H   0  0  0  0  0  0  0  0  0  0  0  0
    3.8491    0.1075   24.7809 H   0  0  0  0  0  0  0  0  0  0  0  0
    6.5314    1.4341   25.1279 H   0  0  0  0  0  0  0  0  0  0  0  0
    5.4026    1.7596   23.8147 H   0  0  0  0  0  0  0  0  0  0  0  0
    7.4758   -0.4057   24.0701 H   0  0  0  0  0  0  0  0  0  0  0  0
    5.9399   -0.9645   23.4342 H   0  0  0  0  0  0  0  0  0  0  0  0
    5.9242   -0.9513   20.7750 H   0  0  0  0  0  0  0  0  0  0  0  0
    6.3716    0.0413   17.9846 H   0  0  0  0  0  0  0  0  0  0  0  0
    7.5661    1.7820   16.6868 H   0  0  0  0  0  0  0  0  0  0  0  0
    8.8553    3.5374   17.8505 H   0  0  0  0  0  0  0  0  0  0  0  0
    9.0421    3.5352   20.3331 H   0  0  0  0  0  0  0  0  0  0  0  0
    8.2297    2.0508   22.5990 H   0  0  0  0  0  0  0  0  0  0  0  0
  1  2  2  0
  2  3  1  0
  3  4  1  0
  4  5  1  0
  5  6  2  0
  6  7  1  0
  7  8  2  0
  8  9  1  0
  2 10  1  0
 10 11  1  0
 11 12  1  0
 12 13  1  0
 13 14  2  0
 14 15  1  0
 15 16  2  0
 16 17  1  0
 17 18  2  0
 18 19  1  0
 19 20  2  0
 20 21  1  0
  9  5  1  0
 21 13  1  0
 20 15  1  0
  3 22  1  0
  3 23  1  0
  4 24  1  0
  4 25  1  0
  6 26  1  0
  7 27  1  0
  9 28  1  0
 10 29  1  0
 11 30  1  0
 11 31  1  0
 12 32  1  0
 12 33  1  0
 14 34  1  0
 16 35  1  0
 17 36  1  0
 18 37  1  0
 19 38  1  0
 21 39  1  0
M  END
>  <Energy>  (1320) 
30.786694335097586

>  <compound_id>  (1320) 
25404

>  <target_id>  (1320) 
1

>  <reference_id>  (1320) 
7

>  <inspiration_ids>  (1320) 
[97, 7]

>  <energy_score>  (1320) 
-1.2125519052618188

>  <distance_score>  (1320) 
13.01675854710687

>  <path>  (1320) 
/opt/xchem-fragalysis-2/maxwin/BulkDock/SCRATCH/511024/C25404-P7/C25404-P7.minimised.mol

>  <scratch_subdir>  (1320) 
/opt/xchem-fragalysis-2/maxwin/BulkDock/SCRATCH/511024/C25404-P7

>  <fragmenstein_runtime>  (1320) 
9.836560726165771

>  <fragmenstein_outcome>  (1320) 
too moved

>  <fragmenstein_mode>  (1320) 
expansion

>  <fragmenstein_error>  (1320) 


$$$$
C30257-P97
     RDKit          3D

 41 43  0  0  0  0  0  0  0  0999 V2000
    2.0114    2.8867   27.8682 C   0  0  0  0  0  0  0  0  0  0  0  0
    2.2269    2.6600   26.4235 N   0  0  0  0  0  0  0  0  0  0  0  0
    0.6353    2.8130   26.3954 C   0  0  0  0  0  0  0  0  0  0  0  0
   -0.3995    2.1011   27.3672 C   0  0  0  0  0  0  0  0  0  0  0  0
   -0.5948    0.7244   27.6812 C   0  0  0  0  0  0  0  0  0  0  0  0
   -1.6493    0.6761   28.5695 C   0  0  0  0  0  0  0  0  0  0  0  0
   -2.0355    1.9674   28.7516 N   0  0  0  0  0  0  0  0  0  0  0  0
   -1.3040    2.8457   28.0386 N   0  0  0  0  0  0  0  0  0  0  0  0
    2.8567    3.5545   25.3724 C   0  0  0  0  0  0  0  0  0  0  0  0
    3.2313    4.6642   25.4649 O   0  0  0  0  0  0  0  0  0  0  0  0
    2.9532    2.6078   24.2437 N   0  0  0  0  0  0  0  0  0  0  0  0
    3.4596    2.7956   22.8605 C   0  0  0  0  0  0  0  0  0  0  0  0
    4.9271    2.3267   22.5514 C   0  0  0  0  0  0  0  0  0  0  0  0
    5.1969    2.0341   21.0818 C   0  0  0  0  0  0  0  0  0  0  0  0
    5.0054    0.8654   20.3646 C   0  0  0  0  0  0  0  0  0  0  0  0
    5.4042    1.0833   19.0191 C   0  0  0  0  0  0  0  0  0  0  0  0
    5.4299    0.2775   17.8639 C   0  0  0  0  0  0  0  0  0  0  0  0
    5.9968    0.7709   16.6834 C   0  0  0  0  0  0  0  0  0  0  0  0
    6.4983    2.0684   16.6378 C   0  0  0  0  0  0  0  0  0  0  0  0
    6.4310    2.9099   17.7583 C   0  0  0  0  0  0  0  0  0  0  0  0
    5.8793    2.3906   18.9420 C   0  0  0  0  0  0  0  0  0  0  0  0
    5.7315    2.9499   20.1971 N   0  0  0  0  0  0  0  0  0  0  0  0
    3.0351    3.0596   28.2353 H   0  0  0  0  0  0  0  0  0  0  0  0
    1.5213    3.8291   28.1563 H   0  0  0  0  0  0  0  0  0  0  0  0
    1.7190    1.9859   28.4171 H   0  0  0  0  0  0  0  0  0  0  0  0
    0.3657    2.4601   25.3905 H   0  0  0  0  0  0  0  0  0  0  0  0
    0.4059    3.8924   26.3542 H   0  0  0  0  0  0  0  0  0  0  0  0
   -0.0229   -0.1171   27.3138 H   0  0  0  0  0  0  0  0  0  0  0  0
   -2.1348   -0.1426   29.0798 H   0  0  0  0  0  0  0  0  0  0  0  0
   -2.7788    2.3286   29.3415 H   0  0  0  0  0  0  0  0  0  0  0  0
    2.5998    1.7058   24.5355 H   0  0  0  0  0  0  0  0  0  0  0  0
    3.3951    3.8692   22.6473 H   0  0  0  0  0  0  0  0  0  0  0  0
    2.7479    2.3014   22.1944 H   0  0  0  0  0  0  0  0  0  0  0  0
    5.1398    1.4170   23.1261 H   0  0  0  0  0  0  0  0  0  0  0  0
    5.6280    3.0879   22.9152 H   0  0  0  0  0  0  0  0  0  0  0  0
    4.6081   -0.0554   20.7729 H   0  0  0  0  0  0  0  0  0  0  0  0
    5.0190   -0.7238   17.9058 H   0  0  0  0  0  0  0  0  0  0  0  0
    6.0349    0.1446   15.7959 H   0  0  0  0  0  0  0  0  0  0  0  0
    6.9325    2.4429   15.7137 H   0  0  0  0  0  0  0  0  0  0  0  0
    6.8142    3.9239   17.7121 H   0  0  0  0  0  0  0  0  0  0  0  0
    5.9927    3.8976   20.4316 H   0  0  0  0  0  0  0  0  0  0  0  0
  1  2  1  0
  2  3  1  0
  3  4  1  0
  4  5  1  0
  5  6  2  0
  6  7  1  0
  7  8  1  0
  2  9  1  0
  9 10  2  0
  9 11  1  0
 11 12  1  0
 12 13  1  0
 13 14  1  0
 14 15  2  0
 15 16  1  0
 16 17  2  0
 17 18  1  0
 18 19  2  0
 19 20  1  0
 20 21  2  0
 21 22  1  0
  8  4  2  0
 22 14  1  0
 21 16  1  0
  1 23  1  0
  1 24  1  0
  1 25  1  0
  3 26  1  0
  3 27  1  0
  5 28  1  0
  6 29  1  0
  7 30  1  0
 11 31  1  0
 12 32  1  0
 12 33  1  0
 13 34  1  0
 13 35  1  0
 15 36  1  0
 17 37  1  0
 18 38  1  0
 19 39  1  0
 20 40  1  0
 22 41  1  0
M  END
>  <Energy>  (1321) 
59.88075359284548

>  <compound_id>  (1321) 
30257

>  <target_id>  (1321) 
1

>  <reference_id>  (1321) 
97

>  <inspiration_ids>  (1321) 
[97, 7]

>  <energy_score>  (1321) 
65.3644619715114

>  <distance_score>  (1321) 
13.558697249758929

>  <path>  (1321) 
/opt/xchem-fragalysis-2/maxwin/BulkDock/SCRATCH/511024/C30257-P97/C30257-P97.minimised.mol

>  <scratch_subdir>  (1321) 
/opt/xchem-fragalysis-2/maxwin/BulkDock/SCRATCH/511024/C30257-P97

>  <fragmenstein_runtime>  (1321) 
8.012984275817871

>  <fragmenstein_outcome>  (1321) 
too moved

>  <fragmenstein_mode>  (1321) 
expansion

>  <fragmenstein_error>  (1321) 


$$$$
C30257-P7
     RDKit          3D

 41 43  0  0  0  0  0  0  0  0999 V2000
    2.3900    2.1687   28.3778 C   0  0  0  0  0  0  0  0  0  0  0  0
    2.6129    2.0994   26.9180 N   0  0  0  0  0  0  0  0  0  0  0  0
    1.0509    2.4388   26.8941 C   0  0  0  0  0  0  0  0  0  0  0  0
   -0.0827    1.7357   27.7537 C   0  0  0  0  0  0  0  0  0  0  0  0
   -0.4145    0.3597   27.9150 C   0  0  0  0  0  0  0  0  0  0  0  0
   -1.5018    0.3199   28.7626 C   0  0  0  0  0  0  0  0  0  0  0  0
   -1.7701    1.6148   29.0766 N   0  0  0  0  0  0  0  0  0  0  0  0
   -0.9434    2.4907   28.4706 N   0  0  0  0  0  0  0  0  0  0  0  0
    3.3655    3.0374   25.9945 C   0  0  0  0  0  0  0  0  0  0  0  0
    3.8620    4.0757   26.2295 O   0  0  0  0  0  0  0  0  0  0  0  0
    3.3800    2.2324   24.7558 N   0  0  0  0  0  0  0  0  0  0  0  0
    3.9859    2.5061   23.4264 C   0  0  0  0  0  0  0  0  0  0  0  0
    5.4023    1.8929   23.1314 C   0  0  0  0  0  0  0  0  0  0  0  0
    5.7684    1.8133   21.6551 C   0  0  0  0  0  0  0  0  0  0  0  0
    6.4882    2.6582   20.8267 C   0  0  0  0  0  0  0  0  0  0  0  0
    6.5106    2.0985   19.5131 C   0  0  0  0  0  0  0  0  0  0  0  0
    7.0579    2.4981   18.2727 C   0  0  0  0  0  0  0  0  0  0  0  0
    6.9117    1.6772   17.1475 C   0  0  0  0  0  0  0  0  0  0  0  0
    6.1922    0.4918   17.2350 C   0  0  0  0  0  0  0  0  0  0  0  0
    5.6305    0.0796   18.4511 C   0  0  0  0  0  0  0  0  0  0  0  0
    5.8161    0.8936   19.5771 C   0  0  0  0  0  0  0  0  0  0  0  0
    5.4041    0.7296   20.8820 N   0  0  0  0  0  0  0  0  0  0  0  0
    2.0011    3.1173   28.7781 H   0  0  0  0  0  0  0  0  0  0  0  0
    3.4177    2.1775   28.7732 H   0  0  0  0  0  0  0  0  0  0  0  0
    1.9862    1.2461   28.8064 H   0  0  0  0  0  0  0  0  0  0  0  0
    0.9475    3.5341   26.9894 H   0  0  0  0  0  0  0  0  0  0  0  0
    0.7664    2.2499   25.8493 H   0  0  0  0  0  0  0  0  0  0  0  0
    0.0915   -0.4919   27.4802 H   0  0  0  0  0  0  0  0  0  0  0  0
   -2.0783   -0.5014   29.1643 H   0  0  0  0  0  0  0  0  0  0  0  0
   -2.4936    1.9796   29.6882 H   0  0  0  0  0  0  0  0  0  0  0  0
    2.9190    1.3486   24.9284 H   0  0  0  0  0  0  0  0  0  0  0  0
    3.2585    2.1791   22.6778 H   0  0  0  0  0  0  0  0  0  0  0  0
    4.0624    3.5963   23.3371 H   0  0  0  0  0  0  0  0  0  0  0  0
    5.4562    0.8856   23.5621 H   0  0  0  0  0  0  0  0  0  0  0  0
    6.1579    2.4874   23.6598 H   0  0  0  0  0  0  0  0  0  0  0  0
    6.9352    3.5968   21.1291 H   0  0  0  0  0  0  0  0  0  0  0  0
    7.5953    3.4392   18.1943 H   0  0  0  0  0  0  0  0  0  0  0  0
    7.3315    1.9901   16.1945 H   0  0  0  0  0  0  0  0  0  0  0  0
    6.0486   -0.1147   16.3432 H   0  0  0  0  0  0  0  0  0  0  0  0
    5.0619   -0.8429   18.5181 H   0  0  0  0  0  0  0  0  0  0  0  0
    4.8720   -0.0590   21.2302 H   0  0  0  0  0  0  0  0  0  0  0  0
  1  2  1  0
  2  3  1  0
  3  4  1  0
  4  5  1  0
  5  6  2  0
  6  7  1  0
  7  8  1  0
  2  9  1  0
  9 10  2  0
  9 11  1  0
 11 12  1  0
 12 13  1  0
 13 14  1  0
 14 15  2  0
 15 16  1  0
 16 17  2  0
 17 18  1  0
 18 19  2  0
 19 20  1  0
 20 21  2  0
 21 22  1  0
  8  4  2  0
 22 14  1  0
 21 16  1  0
  1 23  1  0
  1 24  1  0
  1 25  1  0
  3 26  1  0
  3 27  1  0
  5 28  1  0
  6 29  1  0
  7 30  1  0
 11 31  1  0
 12 32  1  0
 12 33  1  0
 13 34  1  0
 13 35  1  0
 15 36  1  0
 17 37  1  0
 18 38  1  0
 19 39  1  0
 20 40  1  0
 22 41  1  0
M  END
>  <Energy>  (1322) 
60.314516361425376

>  <compound_id>  (1322) 
30257

>  <target_id>  (1322) 
1

>  <reference_id>  (1322) 
7

>  <inspiration_ids>  (1322) 
[97, 7]

>  <energy_score>  (1322) 
65.79822474009123

>  <distance_score>  (1322) 
13.47936363041819

>  <path>  (1322) 
/opt/xchem-fragalysis-2/maxwin/BulkDock/SCRATCH/511024/C30257-P7/C30257-P7.minimised.mol

>  <scratch_subdir>  (1322) 
/opt/xchem-fragalysis-2/maxwin/BulkDock/SCRATCH/511024/C30257-P7

>  <fragmenstein_runtime>  (1322) 
10.72714114189148

>  <fragmenstein_outcome>  (1322) 
too moved

>  <fragmenstein_mode>  (1322) 
expansion

>  <fragmenstein_error>  (1322) 


$$$$
C30258-P97
     RDKit          3D

 40 42  0  0  0  0  0  0  0  0999 V2000
    4.8850   -0.0472   20.9139 C   0  0  0  0  0  0  0  0  0  0  0  0
    6.0337   -0.7814   21.5047 N   0  0  0  0  0  0  0  0  0  0  0  0
    6.7222   -0.2284   20.2946 C   0  0  0  0  0  0  0  0  0  0  0  0
    6.9267    1.2330   19.7473 C   0  0  0  0  0  0  0  0  0  0  0  0
    7.6185    1.0748   18.4524 N   0  0  0  0  0  0  0  0  0  0  0  0
    8.6461    1.8597   17.8310 C   0  0  0  0  0  0  0  0  0  0  0  0
    9.1499    2.8881   18.1664 O   0  0  0  0  0  0  0  0  0  0  0  0
    9.1897    1.1505   16.6157 C   0  0  0  0  0  0  0  0  0  0  0  0
    8.6074    0.1195   15.8907 C   0  0  0  0  0  0  0  0  0  0  0  0
    9.4819   -0.3222   14.9328 N   0  0  0  0  0  0  0  0  0  0  0  0
   10.7061    0.2564   15.1205 C   0  0  0  0  0  0  0  0  0  0  0  0
   11.9236   -0.0332   14.4960 C   0  0  0  0  0  0  0  0  0  0  0  0
   13.0342    0.7170   14.8747 C   0  0  0  0  0  0  0  0  0  0  0  0
   12.9133    1.7403   15.8097 C   0  0  0  0  0  0  0  0  0  0  0  0
   11.6774    2.0276   16.4071 C   0  0  0  0  0  0  0  0  0  0  0  0
   10.5417    1.2530   16.0833 C   0  0  0  0  0  0  0  0  0  0  0  0
    6.1778   -0.4523   22.9048 C   0  0  0  0  0  0  0  0  0  0  0  0
    6.8253    0.4133   23.4398 O   0  0  0  0  0  0  0  0  0  0  0  0
    5.2878   -1.2583   23.8796 C   0  0  0  0  0  0  0  0  0  0  0  0
    5.0201   -0.8630   25.2542 C   0  0  0  0  0  0  0  0  0  0  0  0
    3.9568   -1.6150   25.6887 C   0  0  0  0  0  0  0  0  0  0  0  0
    3.6363   -2.3970   24.6210 N   0  0  0  0  0  0  0  0  0  0  0  0
    4.5130   -2.3285   23.5857 N   0  0  0  0  0  0  0  0  0  0  0  0
    4.6962   -0.0537   19.8233 H   0  0  0  0  0  0  0  0  0  0  0  0
    4.0605   -0.6930   21.1918 H   0  0  0  0  0  0  0  0  0  0  0  0
    4.7360    0.9495   21.3329 H   0  0  0  0  0  0  0  0  0  0  0  0
    6.4305   -0.8593   19.4487 H   0  0  0  0  0  0  0  0  0  0  0  0
    7.7545   -0.4803   20.5263 H   0  0  0  0  0  0  0  0  0  0  0  0
    7.5443    1.8355   20.4198 H   0  0  0  0  0  0  0  0  0  0  0  0
    5.9947    1.7648   19.5418 H   0  0  0  0  0  0  0  0  0  0  0  0
    7.3814    0.3081   17.8480 H   0  0  0  0  0  0  0  0  0  0  0  0
    7.6313   -0.3395   15.9210 H   0  0  0  0  0  0  0  0  0  0  0  0
    9.2857   -1.0099   14.2062 H   0  0  0  0  0  0  0  0  0  0  0  0
   12.0057   -0.8210   13.7532 H   0  0  0  0  0  0  0  0  0  0  0  0
   14.0011    0.5120   14.4208 H   0  0  0  0  0  0  0  0  0  0  0  0
   13.7874    2.3264   16.0846 H   0  0  0  0  0  0  0  0  0  0  0  0
   11.6083    2.8166   17.1527 H   0  0  0  0  0  0  0  0  0  0  0  0
    5.4954   -0.0476   25.7795 H   0  0  0  0  0  0  0  0  0  0  0  0
    3.3645   -1.6093   26.5909 H   0  0  0  0  0  0  0  0  0  0  0  0
    2.7980   -2.9590   24.5056 H   0  0  0  0  0  0  0  0  0  0  0  0
  1  2  1  0
  2  3  1  0
  3  4  1  0
  4  5  1  0
  5  6  1  0
  6  7  2  0
  6  8  1  0
  8  9  2  0
  9 10  1  0
 10 11  1  0
 11 12  2  0
 12 13  1  0
 13 14  2  0
 14 15  1  0
 15 16  2  0
  2 17  1  0
 17 18  2  0
 17 19  1  0
 19 20  1  0
 20 21  2  0
 21 22  1  0
 22 23  1  0
 16  8  1  0
 23 19  2  0
 16 11  1  0
  1 24  1  0
  1 25  1  0
  1 26  1  0
  3 27  1  0
  3 28  1  0
  4 29  1  0
  4 30  1  0
  5 31  1  0
  9 32  1  0
 10 33  1  0
 12 34  1  0
 13 35  1  0
 14 36  1  0
 15 37  1  0
 20 38  1  0
 21 39  1  0
 22 40  1  0
M  END
>  <Energy>  (1323) 
157.74754341458595

>  <compound_id>  (1323) 
30258

>  <target_id>  (1323) 
1

>  <reference_id>  (1323) 
97

>  <inspiration_ids>  (1323) 
[97, 7]

>  <energy_score>  (1323) 
73.83184139249735

>  <distance_score>  (1323) 
13.064515593436655

>  <path>  (1323) 
/opt/xchem-fragalysis-2/maxwin/BulkDock/SCRATCH/511024/C30258-P97/C30258-P97.minimised.mol

>  <scratch_subdir>  (1323) 
/opt/xchem-fragalysis-2/maxwin/BulkDock/SCRATCH/511024/C30258-P97

>  <fragmenstein_runtime>  (1323) 
8.060739755630493

>  <fragmenstein_outcome>  (1323) 
too moved

>  <fragmenstein_mode>  (1323) 
expansion

>  <fragmenstein_error>  (1323) 


$$$$
C30258-P7
     RDKit          3D

 40 42  0  0  0  0  0  0  0  0999 V2000
    0.6727    3.3629   25.2417 C   0  0  0  0  0  0  0  0  0  0  0  0
    1.4246    2.9316   26.4598 N   0  0  0  0  0  0  0  0  0  0  0  0
    2.6512    3.3972   25.5918 C   0  0  0  0  0  0  0  0  0  0  0  0
    3.4026    2.2257   24.8871 C   0  0  0  0  0  0  0  0  0  0  0  0
    4.3966    2.4972   23.8374 N   0  0  0  0  0  0  0  0  0  0  0  0
    4.2826    2.4751   22.3959 C   0  0  0  0  0  0  0  0  0  0  0  0
    3.3295    2.3089   21.6915 O   0  0  0  0  0  0  0  0  0  0  0  0
    5.6120    2.5842   21.6959 C   0  0  0  0  0  0  0  0  0  0  0  0
    6.6721    3.4185   22.0182 C   0  0  0  0  0  0  0  0  0  0  0  0
    7.6279    3.3396   21.0319 N   0  0  0  0  0  0  0  0  0  0  0  0
    7.2470    2.4506   20.0576 C   0  0  0  0  0  0  0  0  0  0  0  0
    7.8624    2.1227   18.8396 C   0  0  0  0  0  0  0  0  0  0  0  0
    7.2736    1.1364   18.0472 C   0  0  0  0  0  0  0  0  0  0  0  0
    6.0947    0.5242   18.4554 C   0  0  0  0  0  0  0  0  0  0  0  0
    5.4664    0.9005   19.6529 C   0  0  0  0  0  0  0  0  0  0  0  0
    6.0321    1.9014   20.4742 C   0  0  0  0  0  0  0  0  0  0  0  0
    0.8308    3.5138   27.6410 C   0  0  0  0  0  0  0  0  0  0  0  0
    1.0705    4.5506   28.2049 O   0  0  0  0  0  0  0  0  0  0  0  0
   -0.2823    2.6652   28.2619 C   0  0  0  0  0  0  0  0  0  0  0  0
   -1.0563    3.0296   29.4247 C   0  0  0  0  0  0  0  0  0  0  0  0
   -1.9143    1.9847   29.6739 C   0  0  0  0  0  0  0  0  0  0  0  0
   -1.6344    1.0621   28.7139 N   0  0  0  0  0  0  0  0  0  0  0  0
   -0.7135    1.4651   27.8124 N   0  0  0  0  0  0  0  0  0  0  0  0
    0.5719    4.4578   25.1752 H   0  0  0  0  0  0  0  0  0  0  0  0
    0.9517    2.8936   24.2918 H   0  0  0  0  0  0  0  0  0  0  0  0
   -0.3615    3.0238   25.3997 H   0  0  0  0  0  0  0  0  0  0  0  0
    2.5512    4.3042   24.9701 H   0  0  0  0  0  0  0  0  0  0  0  0
    3.3473    3.7558   26.3665 H   0  0  0  0  0  0  0  0  0  0  0  0
    3.9102    1.6189   25.6455 H   0  0  0  0  0  0  0  0  0  0  0  0
    2.6579    1.5883   24.4247 H   0  0  0  0  0  0  0  0  0  0  0  0
    5.3724    2.5808   24.0898 H   0  0  0  0  0  0  0  0  0  0  0  0
    6.7971    4.1212   22.8311 H   0  0  0  0  0  0  0  0  0  0  0  0
    8.4705    3.8971   21.0012 H   0  0  0  0  0  0  0  0  0  0  0  0
    8.7623    2.6350   18.5135 H   0  0  0  0  0  0  0  0  0  0  0  0
    7.7251    0.8695   17.0954 H   0  0  0  0  0  0  0  0  0  0  0  0
    5.6172   -0.2258   17.8294 H   0  0  0  0  0  0  0  0  0  0  0  0
    4.5211    0.4435   19.9396 H   0  0  0  0  0  0  0  0  0  0  0  0
   -0.9536    3.9431   29.9949 H   0  0  0  0  0  0  0  0  0  0  0  0
   -2.6533    1.8110   30.4423 H   0  0  0  0  0  0  0  0  0  0  0  0
   -2.0331    0.1356   28.6006 H   0  0  0  0  0  0  0  0  0  0  0  0
  1  2  1  0
  2  3  1  0
  3  4  1  0
  4  5  1  0
  5  6  1  0
  6  7  2  0
  6  8  1  0
  8  9  2  0
  9 10  1  0
 10 11  1  0
 11 12  2  0
 12 13  1  0
 13 14  2  0
 14 15  1  0
 15 16  2  0
  2 17  1  0
 17 18  2  0
 17 19  1  0
 19 20  1  0
 20 21  2  0
 21 22  1  0
 22 23  1  0
 16  8  1  0
 23 19  2  0
 16 11  1  0
  1 24  1  0
  1 25  1  0
  1 26  1  0
  3 27  1  0
  3 28  1  0
  4 29  1  0
  4 30  1  0
  5 31  1  0
  9 32  1  0
 10 33  1  0
 12 34  1  0
 13 35  1  0
 14 36  1  0
 15 37  1  0
 20 38  1  0
 21 39  1  0
 22 40  1  0
M  END
>  <Energy>  (1324) 
138.27006218849792

>  <compound_id>  (1324) 
30258

>  <target_id>  (1324) 
1

>  <reference_id>  (1324) 
7

>  <inspiration_ids>  (1324) 
[97, 7]

>  <energy_score>  (1324) 
54.354360166408924

>  <distance_score>  (1324) 
13.420512737844847

>  <path>  (1324) 
/opt/xchem-fragalysis-2/maxwin/BulkDock/SCRATCH/511024/C30258-P7/C30258-P7.minimised.mol

>  <scratch_subdir>  (1324) 
/opt/xchem-fragalysis-2/maxwin/BulkDock/SCRATCH/511024/C30258-P7

>  <fragmenstein_runtime>  (1324) 
9.095142602920532

>  <fragmenstein_outcome>  (1324) 
too moved

>  <fragmenstein_mode>  (1324) 
expansion

>  <fragmenstein_error>  (1324) 


$$$$
C30259-P97
     RDKit          3D

 43 45  0  0  0  0  0  0  0  0999 V2000
   14.3684   -3.0974   16.2794 C   0  0  0  0  0  0  0  0  0  0  0  0
   14.5995   -3.0255   17.7535 C   0  0  0  0  0  0  0  0  0  0  0  0
   15.5342   -2.1306   18.2747 C   0  0  0  0  0  0  0  0  0  0  0  0
   15.7826   -2.0560   19.6491 C   0  0  0  0  0  0  0  0  0  0  0  0
   15.0680   -2.9168   20.4881 C   0  0  0  0  0  0  0  0  0  0  0  0
   15.0836   -3.0608   21.8568 N   0  0  0  0  0  0  0  0  0  0  0  0
   14.1871   -4.0207   22.2644 C   0  0  0  0  0  0  0  0  0  0  0  0
   13.5469   -4.4927   21.1462 C   0  0  0  0  0  0  0  0  0  0  0  0
   12.4162   -5.4008   20.9960 C   0  0  0  0  0  0  0  0  0  0  0  0
   12.5597   -6.5889   21.0422 O   0  0  0  0  0  0  0  0  0  0  0  0
   11.2503   -4.6005   20.7026 N   0  0  0  0  0  0  0  0  0  0  0  0
    9.4459   -5.0938   20.1187 C   0  0  0  0  0  0  0  0  0  0  0  0
    7.4228   -4.8441   20.5792 C   0  0  0  0  0  0  0  0  0  0  0  0
    6.1608   -5.3103   21.6233 N   0  0  0  0  0  0  0  0  0  0  0  0
    5.8521   -6.2538   20.4866 C   0  0  0  0  0  0  0  0  0  0  0  0
    6.1857   -6.0325   22.8681 C   0  0  0  0  0  0  0  0  0  0  0  0
    7.0973   -6.5703   23.4414 O   0  0  0  0  0  0  0  0  0  0  0  0
    4.7479   -6.1561   23.4131 C   0  0  0  0  0  0  0  0  0  0  0  0
    3.5845   -5.3782   23.0750 C   0  0  0  0  0  0  0  0  0  0  0  0
    2.5031   -6.0640   23.5800 C   0  0  0  0  0  0  0  0  0  0  0  0
    3.0264   -7.0697   24.3244 N   0  0  0  0  0  0  0  0  0  0  0  0
    4.3669   -7.1537   24.2482 N   0  0  0  0  0  0  0  0  0  0  0  0
   14.1380   -3.8271   20.0078 C   0  0  0  0  0  0  0  0  0  0  0  0
   13.9097   -3.8873   18.6153 C   0  0  0  0  0  0  0  0  0  0  0  0
   14.3753   -2.0964   15.8354 H   0  0  0  0  0  0  0  0  0  0  0  0
   15.1563   -3.6979   15.8159 H   0  0  0  0  0  0  0  0  0  0  0  0
   13.3946   -3.5443   16.0546 H   0  0  0  0  0  0  0  0  0  0  0  0
   16.0889   -1.4740   17.6070 H   0  0  0  0  0  0  0  0  0  0  0  0
   16.5082   -1.3534   20.0452 H   0  0  0  0  0  0  0  0  0  0  0  0
   15.6558   -2.5109   22.4808 H   0  0  0  0  0  0  0  0  0  0  0  0
   14.0421   -4.2352   23.3137 H   0  0  0  0  0  0  0  0  0  0  0  0
   11.5122   -3.6443   20.6727 H   0  0  0  0  0  0  0  0  0  0  0  0
    9.1006   -4.0646   19.9483 H   0  0  0  0  0  0  0  0  0  0  0  0
    9.6688   -5.7277   19.2864 H   0  0  0  0  0  0  0  0  0  0  0  0
    7.4103   -3.8757   21.1206 H   0  0  0  0  0  0  0  0  0  0  0  0
    6.9072   -4.7234   19.6358 H   0  0  0  0  0  0  0  0  0  0  0  0
    4.8846   -6.6913   20.7848 H   0  0  0  0  0  0  0  0  0  0  0  0
    6.4397   -7.1714   20.4243 H   0  0  0  0  0  0  0  0  0  0  0  0
    5.5465   -5.8150   19.5272 H   0  0  0  0  0  0  0  0  0  0  0  0
    3.5545   -4.5130   22.4264 H   0  0  0  0  0  0  0  0  0  0  0  0
    1.4411   -5.9371   23.4460 H   0  0  0  0  0  0  0  0  0  0  0  0
    2.5394   -7.7666   24.8778 H   0  0  0  0  0  0  0  0  0  0  0  0
   13.1684   -4.5788   18.2255 H   0  0  0  0  0  0  0  0  0  0  0  0
  1  2  1  0
  2  3  2  0
  3  4  1  0
  4  5  2  0
  5  6  1  0
  6  7  1  0
  7  8  2  0
  8  9  1  0
  9 10  2  0
  9 11  1  0
 11 12  1  0
 12 13  1  0
 13 14  1  0
 14 15  1  0
 14 16  1  0
 16 17  2  0
 16 18  1  0
 18 19  1  0
 19 20  2  0
 20 21  1  0
 21 22  1  0
  8 23  1  0
 23 24  2  0
 24  2  1  0
 23  5  1  0
 22 18  2  0
  1 25  1  0
  1 26  1  0
  1 27  1  0
  3 28  1  0
  4 29  1  0
  6 30  1  0
  7 31  1  0
 11 32  1  0
 12 33  1  0
 12 34  1  0
 13 35  1  0
 13 36  1  0
 15 37  1  0
 15 38  1  0
 15 39  1  0
 19 40  1  0
 20 41  1  0
 21 42  1  0
 24 43  1  0
M  END
>  <Energy>  (1325) 
376.32821895525086

>  <compound_id>  (1325) 
30259

>  <target_id>  (1325) 
1

>  <reference_id>  (1325) 
97

>  <inspiration_ids>  (1325) 
[97, 7]

>  <energy_score>  (1325) 
284.62156891216205

>  <distance_score>  (1325) 
13.571403691880185

>  <path>  (1325) 
/opt/xchem-fragalysis-2/maxwin/BulkDock/SCRATCH/511024/C30259-P97/C30259-P97.minimised.mol

>  <scratch_subdir>  (1325) 
/opt/xchem-fragalysis-2/maxwin/BulkDock/SCRATCH/511024/C30259-P97

>  <fragmenstein_runtime>  (1325) 
14.737690687179565

>  <fragmenstein_outcome>  (1325) 
too moved

>  <fragmenstein_mode>  (1325) 
expansion

>  <fragmenstein_error>  (1325) 


$$$$
C30259-P7
     RDKit          3D

 43 45  0  0  0  0  0  0  0  0999 V2000
   11.4134   -0.5106   24.7277 C   0  0  0  0  0  0  0  0  0  0  0  0
   10.2027    0.1396   24.1183 C   0  0  0  0  0  0  0  0  0  0  0  0
   10.3449    1.0263   23.0528 C   0  0  0  0  0  0  0  0  0  0  0  0
    9.2343    1.5411   22.3787 C   0  0  0  0  0  0  0  0  0  0  0  0
    7.9710    1.1950   22.8555 C   0  0  0  0  0  0  0  0  0  0  0  0
    6.7362    1.5436   22.3828 N   0  0  0  0  0  0  0  0  0  0  0  0
    5.7791    1.2227   23.3084 C   0  0  0  0  0  0  0  0  0  0  0  0
    6.3583    0.5520   24.3818 C   0  0  0  0  0  0  0  0  0  0  0  0
    5.7219    0.1897   25.7135 C   0  0  0  0  0  0  0  0  0  0  0  0
    6.4683   -0.1836   26.5699 O   0  0  0  0  0  0  0  0  0  0  0  0
    4.3049    0.4515   25.7517 N   0  0  0  0  0  0  0  0  0  0  0  0
    3.3503    0.4376   26.8715 C   0  0  0  0  0  0  0  0  0  0  0  0
    2.8820   -0.9650   27.3625 C   0  0  0  0  0  0  0  0  0  0  0  0
    1.5353   -0.8861   28.1613 N   0  0  0  0  0  0  0  0  0  0  0  0
    1.8323   -2.3418   28.3810 C   0  0  0  0  0  0  0  0  0  0  0  0
    1.2210   -0.2494   29.4148 C   0  0  0  0  0  0  0  0  0  0  0  0
    1.9353    0.3069   30.2086 O   0  0  0  0  0  0  0  0  0  0  0  0
   -0.2467   -0.4090   29.8236 C   0  0  0  0  0  0  0  0  0  0  0  0
   -0.8470    0.0984   31.0311 C   0  0  0  0  0  0  0  0  0  0  0  0
   -2.1481   -0.3494   31.0453 C   0  0  0  0  0  0  0  0  0  0  0  0
   -2.2839   -1.0794   29.9060 N   0  0  0  0  0  0  0  0  0  0  0  0
   -1.1787   -1.1073   29.1377 N   0  0  0  0  0  0  0  0  0  0  0  0
    7.7708    0.4440   24.0173 C   0  0  0  0  0  0  0  0  0  0  0  0
    8.9179   -0.1228   24.6266 C   0  0  0  0  0  0  0  0  0  0  0  0
   11.2937   -1.5980   24.7509 H   0  0  0  0  0  0  0  0  0  0  0  0
   11.5507   -0.1476   25.7515 H   0  0  0  0  0  0  0  0  0  0  0  0
   12.3256   -0.2818   24.1675 H   0  0  0  0  0  0  0  0  0  0  0  0
   11.3451    1.2900   22.7141 H   0  0  0  0  0  0  0  0  0  0  0  0
    9.3524    2.2167   21.5393 H   0  0  0  0  0  0  0  0  0  0  0  0
    6.5715    2.0962   21.5536 H   0  0  0  0  0  0  0  0  0  0  0  0
    4.7688    1.5654   23.1401 H   0  0  0  0  0  0  0  0  0  0  0  0
    3.9844    0.6747   24.8153 H   0  0  0  0  0  0  0  0  0  0  0  0
    2.4932    1.0402   26.5574 H   0  0  0  0  0  0  0  0  0  0  0  0
    3.8271    0.9625   27.7073 H   0  0  0  0  0  0  0  0  0  0  0  0
    2.7536   -1.5622   26.4492 H   0  0  0  0  0  0  0  0  0  0  0  0
    3.7299   -1.3186   27.9711 H   0  0  0  0  0  0  0  0  0  0  0  0
    1.8720   -2.9610   27.4761 H   0  0  0  0  0  0  0  0  0  0  0  0
    2.6582   -2.5233   29.0857 H   0  0  0  0  0  0  0  0  0  0  0  0
    0.9641   -2.7504   28.9172 H   0  0  0  0  0  0  0  0  0  0  0  0
   -0.3504    0.6930   31.7859 H   0  0  0  0  0  0  0  0  0  0  0  0
   -2.9562   -0.2265   31.7513 H   0  0  0  0  0  0  0  0  0  0  0  0
   -3.0999   -1.5826   29.5736 H   0  0  0  0  0  0  0  0  0  0  0  0
    8.8010   -0.7307   25.5215 H   0  0  0  0  0  0  0  0  0  0  0  0
  1  2  1  0
  2  3  2  0
  3  4  1  0
  4  5  2  0
  5  6  1  0
  6  7  1  0
  7  8  2  0
  8  9  1  0
  9 10  2  0
  9 11  1  0
 11 12  1  0
 12 13  1  0
 13 14  1  0
 14 15  1  0
 14 16  1  0
 16 17  2  0
 16 18  1  0
 18 19  1  0
 19 20  2  0
 20 21  1  0
 21 22  1  0
  8 23  1  0
 23 24  2  0
 24  2  1  0
 23  5  1  0
 22 18  2  0
  1 25  1  0
  1 26  1  0
  1 27  1  0
  3 28  1  0
  4 29  1  0
  6 30  1  0
  7 31  1  0
 11 32  1  0
 12 33  1  0
 12 34  1  0
 13 35  1  0
 13 36  1  0
 15 37  1  0
 15 38  1  0
 15 39  1  0
 19 40  1  0
 20 41  1  0
 21 42  1  0
 24 43  1  0
M  END
>  <Energy>  (1326) 
137.06196317359232

>  <compound_id>  (1326) 
30259

>  <target_id>  (1326) 
1

>  <reference_id>  (1326) 
7

>  <inspiration_ids>  (1326) 
[97, 7]

>  <energy_score>  (1326) 
45.35531313049677

>  <distance_score>  (1326) 
13.478392348409324

>  <path>  (1326) 
/opt/xchem-fragalysis-2/maxwin/BulkDock/SCRATCH/511024/C30259-P7/C30259-P7.minimised.mol

>  <scratch_subdir>  (1326) 
/opt/xchem-fragalysis-2/maxwin/BulkDock/SCRATCH/511024/C30259-P7

>  <fragmenstein_runtime>  (1326) 
11.377613067626953

>  <fragmenstein_outcome>  (1326) 
too moved

>  <fragmenstein_mode>  (1326) 
expansion

>  <fragmenstein_error>  (1326) 


$$$$
C30260-P97
     RDKit          3D

 43 45  0  0  0  0  0  0  0  0999 V2000
    1.8488    3.5497   23.9032 C   0  0  0  0  0  0  0  0  0  0  0  0
    0.8299    3.3319   24.6770 N   0  0  0  0  0  0  0  0  0  0  0  0
    1.9990    3.5599   23.0905 C   0  0  0  0  0  0  0  0  0  0  0  0
    2.9391    4.9630   22.4955 C   0  0  0  0  0  0  0  0  0  0  0  0
    4.2831    4.6270   21.9634 N   0  0  0  0  0  0  0  0  0  0  0  0
    4.6843    3.9974   20.7142 C   0  0  0  0  0  0  0  0  0  0  0  0
    4.0268    3.5209   19.8369 O   0  0  0  0  0  0  0  0  0  0  0  0
    6.1964    3.9271   20.5450 C   0  0  0  0  0  0  0  0  0  0  0  0
    7.1656    4.0774   21.5294 C   0  0  0  0  0  0  0  0  0  0  0  0
    8.4185    3.9480   20.9807 N   0  0  0  0  0  0  0  0  0  0  0  0
    9.6546    4.0687   21.7258 C   0  0  0  0  0  0  0  0  0  0  0  0
    8.3359    3.7027   19.6325 C   0  0  0  0  0  0  0  0  0  0  0  0
    9.3531    3.5288   18.6687 C   0  0  0  0  0  0  0  0  0  0  0  0
    8.9798    3.2573   17.3531 C   0  0  0  0  0  0  0  0  0  0  0  0
    7.6347    3.1654   17.0194 C   0  0  0  0  0  0  0  0  0  0  0  0
    6.6298    3.3505   17.9860 C   0  0  0  0  0  0  0  0  0  0  0  0
    6.9665    3.6395   19.3291 C   0  0  0  0  0  0  0  0  0  0  0  0
   -0.6761    3.8155   24.7188 C   0  0  0  0  0  0  0  0  0  0  0  0
   -1.3164    4.4375   23.9795 O   0  0  0  0  0  0  0  0  0  0  0  0
   -1.3956    3.2497   25.9543 C   0  0  0  0  0  0  0  0  0  0  0  0
   -2.7591    3.5300   26.3380 C   0  0  0  0  0  0  0  0  0  0  0  0
   -3.0204    2.7865   27.4663 C   0  0  0  0  0  0  0  0  0  0  0  0
   -1.8658    2.1143   27.7216 N   0  0  0  0  0  0  0  0  0  0  0  0
   -0.8792    2.3625   26.8350 N   0  0  0  0  0  0  0  0  0  0  0  0
    2.8600    3.8038   24.6461 H   0  0  0  0  0  0  0  0  0  0  0  0
    1.6811    4.6982   24.3932 H   0  0  0  0  0  0  0  0  0  0  0  0
    2.2233    2.4823   24.4613 H   0  0  0  0  0  0  0  0  0  0  0  0
    2.4526    2.5529   22.5562 H   0  0  0  0  0  0  0  0  0  0  0  0
    1.1200    3.6626   22.2489 H   0  0  0  0  0  0  0  0  0  0  0  0
    3.0798    5.7068   23.2875 H   0  0  0  0  0  0  0  0  0  0  0  0
    2.3593    5.3984   21.6741 H   0  0  0  0  0  0  0  0  0  0  0  0
    5.1033    4.9919   22.4277 H   0  0  0  0  0  0  0  0  0  0  0  0
    7.0727    4.2619   22.5913 H   0  0  0  0  0  0  0  0  0  0  0  0
   10.2200    4.9119   21.3211 H   0  0  0  0  0  0  0  0  0  0  0  0
   10.2147    3.1363   21.6173 H   0  0  0  0  0  0  0  0  0  0  0  0
    9.4314    4.2445   22.7812 H   0  0  0  0  0  0  0  0  0  0  0  0
   10.4032    3.6046   18.9365 H   0  0  0  0  0  0  0  0  0  0  0  0
    9.7418    3.1274   16.5886 H   0  0  0  0  0  0  0  0  0  0  0  0
    7.3447    2.9752   15.9921 H   0  0  0  0  0  0  0  0  0  0  0  0
    5.5821    3.2896   17.6962 H   0  0  0  0  0  0  0  0  0  0  0  0
   -3.4380    4.1942   25.8204 H   0  0  0  0  0  0  0  0  0  0  0  0
   -3.8968    2.6834   28.0893 H   0  0  0  0  0  0  0  0  0  0  0  0
   -1.6699    1.4658   28.4774 H   0  0  0  0  0  0  0  0  0  0  0  0
  1  2  1  0
  2  3  1  0
  3  4  1  0
  4  5  1  0
  5  6  1  0
  6  7  2  0
  6  8  1  0
  8  9  2  0
  9 10  1  0
 10 11  1  0
 10 12  1  0
 12 13  2  0
 13 14  1  0
 14 15  2  0
 15 16  1  0
 16 17  2  0
  2 18  1  0
 18 19  2  0
 18 20  1  0
 20 21  1  0
 21 22  2  0
 22 23  1  0
 23 24  1  0
 17  8  1  0
 24 20  2  0
 17 12  1  0
  1 25  1  0
  1 26  1  0
  1 27  1  0
  3 28  1  0
  3 29  1  0
  4 30  1  0
  4 31  1  0
  5 32  1  0
  9 33  1  0
 11 34  1  0
 11 35  1  0
 11 36  1  0
 13 37  1  0
 14 38  1  0
 15 39  1  0
 16 40  1  0
 21 41  1  0
 22 42  1  0
 23 43  1  0
M  END
>  <Energy>  (1327) 
830.2036167688957

>  <compound_id>  (1327) 
30260

>  <target_id>  (1327) 
1

>  <reference_id>  (1327) 
97

>  <inspiration_ids>  (1327) 
[97, 7]

>  <energy_score>  (1327) 
748.1018496927936

>  <distance_score>  (1327) 
13.384067445929723

>  <path>  (1327) 
/opt/xchem-fragalysis-2/maxwin/BulkDock/SCRATCH/511024/C30260-P97/C30260-P97.minimised.mol

>  <scratch_subdir>  (1327) 
/opt/xchem-fragalysis-2/maxwin/BulkDock/SCRATCH/511024/C30260-P97

>  <fragmenstein_runtime>  (1327) 
9.064980030059814

>  <fragmenstein_outcome>  (1327) 
too moved

>  <fragmenstein_mode>  (1327) 
expansion

>  <fragmenstein_error>  (1327) 


$$$$
C30260-P7
     RDKit          3D

 43 45  0  0  0  0  0  0  0  0999 V2000
   11.9869   -3.3318   13.4840 C   0  0  0  0  0  0  0  0  0  0  0  0
   11.0984   -2.5650   14.1409 N   0  0  0  0  0  0  0  0  0  0  0  0
   11.8346   -3.9767   13.0087 C   0  0  0  0  0  0  0  0  0  0  0  0
   12.5854   -4.7294   11.5055 C   0  0  0  0  0  0  0  0  0  0  0  0
   12.0079   -5.8332   10.6526 N   0  0  0  0  0  0  0  0  0  0  0  0
   11.5005   -5.8236    9.2636 C   0  0  0  0  0  0  0  0  0  0  0  0
   11.4702   -4.9446    8.4503 O   0  0  0  0  0  0  0  0  0  0  0  0
   11.0425   -7.1433    8.7555 C   0  0  0  0  0  0  0  0  0  0  0  0
   10.2875   -8.1447    9.3310 C   0  0  0  0  0  0  0  0  0  0  0  0
   10.2518   -9.2164    8.4926 N   0  0  0  0  0  0  0  0  0  0  0  0
    9.5888  -10.4689    8.7768 C   0  0  0  0  0  0  0  0  0  0  0  0
   10.8928   -8.9082    7.3244 C   0  0  0  0  0  0  0  0  0  0  0  0
   11.1511   -9.6773    6.1917 C   0  0  0  0  0  0  0  0  0  0  0  0
   11.8057   -9.0578    5.1260 C   0  0  0  0  0  0  0  0  0  0  0  0
   12.1547   -7.7136    5.1675 C   0  0  0  0  0  0  0  0  0  0  0  0
   11.8775   -6.9558    6.2957 C   0  0  0  0  0  0  0  0  0  0  0  0
   11.2739   -7.5735    7.4115 C   0  0  0  0  0  0  0  0  0  0  0  0
   11.4073   -0.9802   14.4491 C   0  0  0  0  0  0  0  0  0  0  0  0
   12.2508   -0.2712   14.1248 O   0  0  0  0  0  0  0  0  0  0  0  0
   10.2205   -0.5212   15.3120 C   0  0  0  0  0  0  0  0  0  0  0  0
    8.9384   -1.1489   15.3551 C   0  0  0  0  0  0  0  0  0  0  0  0
    8.1658   -0.3972   16.1861 C   0  0  0  0  0  0  0  0  0  0  0  0
    8.9176    0.6516   16.5718 N   0  0  0  0  0  0  0  0  0  0  0  0
   10.1988    0.5363   16.1708 N   0  0  0  0  0  0  0  0  0  0  0  0
   13.1567   -2.8937   13.6302 H   0  0  0  0  0  0  0  0  0  0  0  0
   12.3666   -3.5652   14.6488 H   0  0  0  0  0  0  0  0  0  0  0  0
   12.2031   -2.2932   12.7881 H   0  0  0  0  0  0  0  0  0  0  0  0
   10.9686   -3.8439   12.2036 H   0  0  0  0  0  0  0  0  0  0  0  0
   11.2315   -4.9103   13.4264 H   0  0  0  0  0  0  0  0  0  0  0  0
   13.3985   -4.0725   11.1764 H   0  0  0  0  0  0  0  0  0  0  0  0
   13.2363   -5.4492   11.8662 H   0  0  0  0  0  0  0  0  0  0  0  0
   11.9488   -6.7709   11.0196 H   0  0  0  0  0  0  0  0  0  0  0  0
    9.7093   -8.1867   10.2336 H   0  0  0  0  0  0  0  0  0  0  0  0
   10.3314  -11.2699    8.7356 H   0  0  0  0  0  0  0  0  0  0  0  0
    9.1431  -10.4315    9.7742 H   0  0  0  0  0  0  0  0  0  0  0  0
    8.8077  -10.6256    8.0284 H   0  0  0  0  0  0  0  0  0  0  0  0
   10.8586  -10.7196    6.1272 H   0  0  0  0  0  0  0  0  0  0  0  0
   12.0251   -9.6360    4.2310 H   0  0  0  0  0  0  0  0  0  0  0  0
   12.6421   -7.2508    4.3140 H   0  0  0  0  0  0  0  0  0  0  0  0
   12.1643   -5.9085    6.3249 H   0  0  0  0  0  0  0  0  0  0  0  0
    8.6200   -2.0121   14.7857 H   0  0  0  0  0  0  0  0  0  0  0  0
    7.1253   -0.5149   16.4212 H   0  0  0  0  0  0  0  0  0  0  0  0
    8.6501    1.4585   17.1272 H   0  0  0  0  0  0  0  0  0  0  0  0
  1  2  1  0
  2  3  1  0
  3  4  1  0
  4  5  1  0
  5  6  1  0
  6  7  2  0
  6  8  1  0
  8  9  2  0
  9 10  1  0
 10 11  1  0
 10 12  1  0
 12 13  2  0
 13 14  1  0
 14 15  2  0
 15 16  1  0
 16 17  2  0
  2 18  1  0
 18 19  2  0
 18 20  1  0
 20 21  1  0
 21 22  2  0
 22 23  1  0
 23 24  1  0
 17  8  1  0
 24 20  2  0
 17 12  1  0
  1 25  1  0
  1 26  1  0
  1 27  1  0
  3 28  1  0
  3 29  1  0
  4 30  1  0
  4 31  1  0
  5 32  1  0
  9 33  1  0
 11 34  1  0
 11 35  1  0
 11 36  1  0
 13 37  1  0
 14 38  1  0
 15 39  1  0
 16 40  1  0
 21 41  1  0
 22 42  1  0
 23 43  1  0
M  END
>  <Energy>  (1328) 
877.09250776043893

>  <compound_id>  (1328) 
30260

>  <target_id>  (1328) 
1

>  <reference_id>  (1328) 
7

>  <inspiration_ids>  (1328) 
[97, 7]

>  <energy_score>  (1328) 
794.9907406843365

>  <distance_score>  (1328) 
18.441268302560342

>  <path>  (1328) 
/opt/xchem-fragalysis-2/maxwin/BulkDock/SCRATCH/511024/C30260-P7/C30260-P7.minimised.mol

>  <scratch_subdir>  (1328) 
/opt/xchem-fragalysis-2/maxwin/BulkDock/SCRATCH/511024/C30260-P7

>  <fragmenstein_runtime>  (1328) 
13.20945954322815

>  <fragmenstein_outcome>  (1328) 
too moved

>  <fragmenstein_mode>  (1328) 
expansion

>  <fragmenstein_error>  (1328) 


$$$$
C30261-P97
     RDKit          3D

 40 42  0  0  0  0  0  0  0  0999 V2000
    6.1200    3.7843   17.2669 C   0  0  0  0  0  0  0  0  0  0  0  0
    6.1654    3.6405   19.0451 N   0  0  0  0  0  0  0  0  0  0  0  0
    5.8470    5.5056   18.6385 C   0  0  0  0  0  0  0  0  0  0  0  0
    7.4777    6.3408   19.2939 C   0  0  0  0  0  0  0  0  0  0  0  0
    7.2623    5.1650   19.8769 N   0  0  0  0  0  0  0  0  0  0  0  0
    7.0911    4.8213   21.1726 C   0  0  0  0  0  0  0  0  0  0  0  0
    7.1820    5.4564   22.1775 O   0  0  0  0  0  0  0  0  0  0  0  0
    6.6141    3.3800   20.9471 C   0  0  0  0  0  0  0  0  0  0  0  0
    4.9973    4.1286   20.4485 C   0  0  0  0  0  0  0  0  0  0  0  0
    4.3567    3.3539   18.8082 N   0  0  0  0  0  0  0  0  0  0  0  0
    5.5485    1.9309   18.3926 C   0  0  0  0  0  0  0  0  0  0  0  0
    5.5094    0.9204   17.4458 C   0  0  0  0  0  0  0  0  0  0  0  0
    6.7724    0.3592   17.2156 C   0  0  0  0  0  0  0  0  0  0  0  0
    7.9884    0.6593   17.8929 C   0  0  0  0  0  0  0  0  0  0  0  0
    9.0763    0.0879   17.3468 F   0  0  0  0  0  0  0  0  0  0  0  0
    8.1362    1.4359   19.0540 C   0  0  0  0  0  0  0  0  0  0  0  0
    6.9806    2.0520   19.5345 C   0  0  0  0  0  0  0  0  0  0  0  0
    5.0153    2.2774   20.1433 C   0  0  0  0  0  0  0  0  0  0  0  0
    3.8388    2.5207   20.6172 O   0  0  0  0  0  0  0  0  0  0  0  0
    5.5296    0.7294   20.6788 C   0  0  0  0  0  0  0  0  0  0  0  0
    4.8228   -0.4812   20.3699 C   0  0  0  0  0  0  0  0  0  0  0  0
    5.1097   -1.3708   21.3818 C   0  0  0  0  0  0  0  0  0  0  0  0
    5.7611   -0.6321   22.3167 N   0  0  0  0  0  0  0  0  0  0  0  0
    6.2184    0.5468   21.8396 N   0  0  0  0  0  0  0  0  0  0  0  0
    6.9082    4.5059   16.9963 H   0  0  0  0  0  0  0  0  0  0  0  0
    5.1356    4.0209   16.8404 H   0  0  0  0  0  0  0  0  0  0  0  0
    6.5699    2.9265   16.7643 H   0  0  0  0  0  0  0  0  0  0  0  0
    5.0231    5.9367   19.2210 H   0  0  0  0  0  0  0  0  0  0  0  0
    5.7419    5.8336   17.5962 H   0  0  0  0  0  0  0  0  0  0  0  0
    7.1410    7.2624   19.7647 H   0  0  0  0  0  0  0  0  0  0  0  0
    8.1351    6.3506   18.4267 H   0  0  0  0  0  0  0  0  0  0  0  0
    7.1881    4.3432   19.3125 H   0  0  0  0  0  0  0  0  0  0  0  0
    4.3232    4.8965   20.8212 H   0  0  0  0  0  0  0  0  0  0  0  0
    3.3767    3.1100   18.8560 H   0  0  0  0  0  0  0  0  0  0  0  0
    4.6490    0.7220   16.8202 H   0  0  0  0  0  0  0  0  0  0  0  0
    6.8638   -0.3391   16.3791 H   0  0  0  0  0  0  0  0  0  0  0  0
    9.0703    1.6067   19.5620 H   0  0  0  0  0  0  0  0  0  0  0  0
    4.1360   -0.6315   19.5516 H   0  0  0  0  0  0  0  0  0  0  0  0
    4.7908   -2.3810   21.5913 H   0  0  0  0  0  0  0  0  0  0  0  0
    5.9537   -0.8739   23.2829 H   0  0  0  0  0  0  0  0  0  0  0  0
  1  2  1  0
  2  3  1  0
  3  4  1  0
  4  5  1  0
  5  6  1  0
  6  7  2  0
  6  8  1  0
  8  9  2  0
  9 10  1  0
 10 11  1  0
 11 12  2  0
 12 13  1  0
 13 14  2  0
 14 15  1  0
 14 16  1  0
 16 17  2  0
  2 18  1  0
 18 19  2  0
 18 20  1  0
 20 21  1  0
 21 22  2  0
 22 23  1  0
 23 24  1  0
 17  8  1  0
 24 20  2  0
 17 11  1  0
  1 25  1  0
  1 26  1  0
  1 27  1  0
  3 28  1  0
  3 29  1  0
  4 30  1  0
  4 31  1  0
  5 32  1  0
  9 33  1  0
 10 34  1  0
 12 35  1  0
 13 36  1  0
 16 37  1  0
 21 38  1  0
 22 39  1  0
 23 40  1  0
M  END
>  <Energy>  (1329) 
1690.5906014647153

>  <compound_id>  (1329) 
30261

>  <target_id>  (1329) 
1

>  <reference_id>  (1329) 
97

>  <inspiration_ids>  (1329) 
[97, 7]

>  <energy_score>  (1329) 
1603.790442490546

>  <distance_score>  (1329) 
15.703010899789131

>  <path>  (1329) 
/opt/xchem-fragalysis-2/maxwin/BulkDock/SCRATCH/511024/C30261-P97/C30261-P97.minimised.mol

>  <scratch_subdir>  (1329) 
/opt/xchem-fragalysis-2/maxwin/BulkDock/SCRATCH/511024/C30261-P97

>  <fragmenstein_runtime>  (1329) 
8.098525047302246

>  <fragmenstein_outcome>  (1329) 
too moved

>  <fragmenstein_mode>  (1329) 
expansion

>  <fragmenstein_error>  (1329) 


$$$$
C30261-P7
     RDKit          3D

 40 42  0  0  0  0  0  0  0  0999 V2000
    0.4780    3.2778   25.5326 C   0  0  0  0  0  0  0  0  0  0  0  0
    1.2457    3.1670   26.8124 N   0  0  0  0  0  0  0  0  0  0  0  0
    2.4546    3.4829   25.8500 C   0  0  0  0  0  0  0  0  0  0  0  0
    3.2370    2.2736   25.2226 C   0  0  0  0  0  0  0  0  0  0  0  0
    4.2829    2.5499   24.2198 N   0  0  0  0  0  0  0  0  0  0  0  0
    4.2314    2.5586   22.7739 C   0  0  0  0  0  0  0  0  0  0  0  0
    3.3077    2.4225   22.0256 O   0  0  0  0  0  0  0  0  0  0  0  0
    5.5885    2.6925   22.1375 C   0  0  0  0  0  0  0  0  0  0  0  0
    6.5866    3.5819   22.5060 C   0  0  0  0  0  0  0  0  0  0  0  0
    7.5926    3.5488   21.5723 N   0  0  0  0  0  0  0  0  0  0  0  0
    7.3042    2.6417   20.5835 C   0  0  0  0  0  0  0  0  0  0  0  0
    7.9986    2.3592   19.3989 C   0  0  0  0  0  0  0  0  0  0  0  0
    7.5041    1.3445   18.5825 C   0  0  0  0  0  0  0  0  0  0  0  0
    6.3678    0.6492   18.9583 C   0  0  0  0  0  0  0  0  0  0  0  0
    5.9477   -0.3452   18.1685 F   0  0  0  0  0  0  0  0  0  0  0  0
    5.6450    0.9753   20.1108 C   0  0  0  0  0  0  0  0  0  0  0  0
    6.1035    2.0205   20.9453 C   0  0  0  0  0  0  0  0  0  0  0  0
    0.8852    1.9516   27.5056 C   0  0  0  0  0  0  0  0  0  0  0  0
    1.3673    0.8505   27.4508 O   0  0  0  0  0  0  0  0  0  0  0  0
   -0.3419    2.0893   28.4151 C   0  0  0  0  0  0  0  0  0  0  0  0
   -0.8882    1.0406   29.2413 C   0  0  0  0  0  0  0  0  0  0  0  0
   -1.9946    1.5610   29.8694 C   0  0  0  0  0  0  0  0  0  0  0  0
   -2.0876    2.8392   29.4165 N   0  0  0  0  0  0  0  0  0  0  0  0
   -1.1159    3.1897   28.5463 N   0  0  0  0  0  0  0  0  0  0  0  0
   -0.5630    3.0174   25.7742 H   0  0  0  0  0  0  0  0  0  0  0  0
    0.7285    2.5608   24.7468 H   0  0  0  0  0  0  0  0  0  0  0  0
    0.3950    4.3154   25.1775 H   0  0  0  0  0  0  0  0  0  0  0  0
    3.1735    3.9039   26.5708 H   0  0  0  0  0  0  0  0  0  0  0  0
    2.3320    4.3297   25.1540 H   0  0  0  0  0  0  0  0  0  0  0  0
    3.7180    1.7019   26.0237 H   0  0  0  0  0  0  0  0  0  0  0  0
    2.5416    1.6069   24.7251 H   0  0  0  0  0  0  0  0  0  0  0  0
    5.2482    2.6122   24.5160 H   0  0  0  0  0  0  0  0  0  0  0  0
    6.6296    4.2965   23.3174 H   0  0  0  0  0  0  0  0  0  0  0  0
    8.4057    4.1498   21.5809 H   0  0  0  0  0  0  0  0  0  0  0  0
    8.8868    2.9192   19.1226 H   0  0  0  0  0  0  0  0  0  0  0  0
    7.9971    1.0997   17.6475 H   0  0  0  0  0  0  0  0  0  0  0  0
    4.7276    0.4446   20.3509 H   0  0  0  0  0  0  0  0  0  0  0  0
   -0.4925    0.0380   29.3362 H   0  0  0  0  0  0  0  0  0  0  0  0
   -2.7027    1.1437   30.5701 H   0  0  0  0  0  0  0  0  0  0  0  0
   -2.7843    3.5373   29.6540 H   0  0  0  0  0  0  0  0  0  0  0  0
  1  2  1  0
  2  3  1  0
  3  4  1  0
  4  5  1  0
  5  6  1  0
  6  7  2  0
  6  8  1  0
  8  9  2  0
  9 10  1  0
 10 11  1  0
 11 12  2  0
 12 13  1  0
 13 14  2  0
 14 15  1  0
 14 16  1  0
 16 17  2  0
  2 18  1  0
 18 19  2  0
 18 20  1  0
 20 21  1  0
 21 22  2  0
 22 23  1  0
 23 24  1  0
 17  8  1  0
 24 20  2  0
 17 11  1  0
  1 25  1  0
  1 26  1  0
  1 27  1  0
  3 28  1  0
  3 29  1  0
  4 30  1  0
  4 31  1  0
  5 32  1  0
  9 33  1  0
 10 34  1  0
 12 35  1  0
 13 36  1  0
 16 37  1  0
 21 38  1  0
 22 39  1  0
 23 40  1  0
M  END
>  <Energy>  (1330) 
133.84508865020038

>  <compound_id>  (1330) 
30261

>  <target_id>  (1330) 
1

>  <reference_id>  (1330) 
7

>  <inspiration_ids>  (1330) 
[97, 7]

>  <energy_score>  (1330) 
47.044929676031245

>  <distance_score>  (1330) 
13.598522001993384

>  <path>  (1330) 
/opt/xchem-fragalysis-2/maxwin/BulkDock/SCRATCH/511024/C30261-P7/C30261-P7.minimised.mol

>  <scratch_subdir>  (1330) 
/opt/xchem-fragalysis-2/maxwin/BulkDock/SCRATCH/511024/C30261-P7

>  <fragmenstein_runtime>  (1330) 
9.511461019515991

>  <fragmenstein_outcome>  (1330) 
too moved

>  <fragmenstein_mode>  (1330) 
expansion

>  <fragmenstein_error>  (1330) 


$$$$
C30262-P97
     RDKit          3D

 46 48  0  0  0  0  0  0  0  0999 V2000
   13.3722    3.6912   14.3600 C   0  0  0  0  0  0  0  0  0  0  0  0
   13.2010    3.1156   15.7548 C   0  0  0  0  0  0  0  0  0  0  0  0
   12.1584    2.1017   15.8062 N   0  0  0  0  0  0  0  0  0  0  0  0
   10.8606    2.3503   16.1884 C   0  0  0  0  0  0  0  0  0  0  0  0
   10.1484    1.1638   16.1392 C   0  0  0  0  0  0  0  0  0  0  0  0
    8.7395    0.9169   16.5320 C   0  0  0  0  0  0  0  0  0  0  0  0
    8.2130   -0.0248   16.0264 O   0  0  0  0  0  0  0  0  0  0  0  0
    8.2641    1.8273   17.5310 N   0  0  0  0  0  0  0  0  0  0  0  0
    6.9533    1.9486   18.1744 C   0  0  0  0  0  0  0  0  0  0  0  0
    6.2859    0.5593   18.5212 C   0  0  0  0  0  0  0  0  0  0  0  0
    6.0571   -0.2180   19.8225 N   0  0  0  0  0  0  0  0  0  0  0  0
    7.3977    0.3147   20.1311 C   0  0  0  0  0  0  0  0  0  0  0  0
    5.1758    0.0286   20.9034 C   0  0  0  0  0  0  0  0  0  0  0  0
    4.4509    0.9570   21.1148 O   0  0  0  0  0  0  0  0  0  0  0  0
    5.1009   -1.1643   21.8861 C   0  0  0  0  0  0  0  0  0  0  0  0
    5.4619   -1.1651   23.2868 C   0  0  0  0  0  0  0  0  0  0  0  0
    4.7872   -2.2159   23.8729 C   0  0  0  0  0  0  0  0  0  0  0  0
    4.0738   -2.7837   22.8624 N   0  0  0  0  0  0  0  0  0  0  0  0
    4.3543   -2.2730   21.6363 N   0  0  0  0  0  0  0  0  0  0  0  0
   11.0740    0.1684   15.6397 C   0  0  0  0  0  0  0  0  0  0  0  0
   10.9662   -1.2047   15.3249 C   0  0  0  0  0  0  0  0  0  0  0  0
   12.0923   -1.9439   14.9543 C   0  0  0  0  0  0  0  0  0  0  0  0
   13.3318   -1.3293   14.8714 C   0  0  0  0  0  0  0  0  0  0  0  0
   13.4688    0.0365   15.1339 C   0  0  0  0  0  0  0  0  0  0  0  0
   12.3283    0.7673   15.5125 C   0  0  0  0  0  0  0  0  0  0  0  0
   14.1524    4.4586   14.3594 H   0  0  0  0  0  0  0  0  0  0  0  0
   13.6566    2.9153   13.6416 H   0  0  0  0  0  0  0  0  0  0  0  0
   12.4423    4.1486   14.0057 H   0  0  0  0  0  0  0  0  0  0  0  0
   14.1324    2.6642   16.1120 H   0  0  0  0  0  0  0  0  0  0  0  0
   12.9304    3.9074   16.4624 H   0  0  0  0  0  0  0  0  0  0  0  0
   10.5599    3.3532   16.4622 H   0  0  0  0  0  0  0  0  0  0  0  0
    9.0131    2.4606   17.7836 H   0  0  0  0  0  0  0  0  0  0  0  0
    6.3289    2.4367   17.4166 H   0  0  0  0  0  0  0  0  0  0  0  0
    7.0195    2.6484   19.0112 H   0  0  0  0  0  0  0  0  0  0  0  0
    5.2292    0.7844   18.2968 H   0  0  0  0  0  0  0  0  0  0  0  0
    6.5142   -0.1698   17.7470 H   0  0  0  0  0  0  0  0  0  0  0  0
    8.2015    0.0316   19.4399 H   0  0  0  0  0  0  0  0  0  0  0  0
    7.6863   -0.2004   21.0592 H   0  0  0  0  0  0  0  0  0  0  0  0
    7.4007    1.3560   20.4775 H   0  0  0  0  0  0  0  0  0  0  0  0
    6.0151   -0.4063   23.8143 H   0  0  0  0  0  0  0  0  0  0  0  0
    4.6777   -2.5349   24.8980 H   0  0  0  0  0  0  0  0  0  0  0  0
    3.3759   -3.5165   22.9297 H   0  0  0  0  0  0  0  0  0  0  0  0
    9.9964   -1.6946   15.3273 H   0  0  0  0  0  0  0  0  0  0  0  0
   11.9809   -2.9956   14.7026 H   0  0  0  0  0  0  0  0  0  0  0  0
   14.2017   -1.9081   14.5692 H   0  0  0  0  0  0  0  0  0  0  0  0
   14.4410    0.5098   15.0369 H   0  0  0  0  0  0  0  0  0  0  0  0
  1  2  1  0
  2  3  1  0
  3  4  1  0
  4  5  2  0
  5  6  1  0
  6  7  2  0
  6  8  1  0
  8  9  1  0
  9 10  1  0
 10 11  1  0
 11 12  1  0
 11 13  1  0
 13 14  2  0
 13 15  1  0
 15 16  1  0
 16 17  2  0
 17 18  1  0
 18 19  1  0
  5 20  1  0
 20 21  2  0
 21 22  1  0
 22 23  2  0
 23 24  1  0
 24 25  2  0
 25  3  1  0
 19 15  2  0
 25 20  1  0
  1 26  1  0
  1 27  1  0
  1 28  1  0
  2 29  1  0
  2 30  1  0
  4 31  1  0
  8 32  1  0
  9 33  1  0
  9 34  1  0
 10 35  1  0
 10 36  1  0
 12 37  1  0
 12 38  1  0
 12 39  1  0
 16 40  1  0
 17 41  1  0
 18 42  1  0
 21 43  1  0
 22 44  1  0
 23 45  1  0
 24 46  1  0
M  END
>  <Energy>  (1331) 
160.56513128080036

>  <compound_id>  (1331) 
30262

>  <target_id>  (1331) 
1

>  <reference_id>  (1331) 
97

>  <inspiration_ids>  (1331) 
[97, 7]

>  <energy_score>  (1331) 
51.612548502160905

>  <distance_score>  (1331) 
13.480649432617389

>  <path>  (1331) 
/opt/xchem-fragalysis-2/maxwin/BulkDock/SCRATCH/511024/C30262-P97/C30262-P97.minimised.mol

>  <scratch_subdir>  (1331) 
/opt/xchem-fragalysis-2/maxwin/BulkDock/SCRATCH/511024/C30262-P97

>  <fragmenstein_runtime>  (1331) 
8.699209213256836

>  <fragmenstein_outcome>  (1331) 
too moved

>  <fragmenstein_mode>  (1331) 
expansion

>  <fragmenstein_error>  (1331) 


$$$$
C30262-P7
     RDKit          3D

 46 48  0  0  0  0  0  0  0  0999 V2000
   11.7563    1.6860   13.8394 C   0  0  0  0  0  0  0  0  0  0  0  0
   11.4824    0.2003   13.9905 C   0  0  0  0  0  0  0  0  0  0  0  0
   12.4948   -0.4736   14.7818 N   0  0  0  0  0  0  0  0  0  0  0  0
   12.4353   -0.5982   16.1441 C   0  0  0  0  0  0  0  0  0  0  0  0
   13.5753   -1.2526   16.5623 C   0  0  0  0  0  0  0  0  0  0  0  0
   13.9207   -1.5851   17.9322 C   0  0  0  0  0  0  0  0  0  0  0  0
   14.5644   -0.8151   18.5760 O   0  0  0  0  0  0  0  0  0  0  0  0
   13.3858   -2.8616   18.2695 N   0  0  0  0  0  0  0  0  0  0  0  0
   13.5325   -3.6613   19.4546 C   0  0  0  0  0  0  0  0  0  0  0  0
   12.5841   -3.2705   20.6771 C   0  0  0  0  0  0  0  0  0  0  0  0
   10.9663   -3.7824   21.2024 N   0  0  0  0  0  0  0  0  0  0  0  0
   11.5945   -5.0667   20.4178 C   0  0  0  0  0  0  0  0  0  0  0  0
    9.2465   -2.9977   20.7540 C   0  0  0  0  0  0  0  0  0  0  0  0
    8.9755   -2.1135   19.9960 O   0  0  0  0  0  0  0  0  0  0  0  0
    7.7110   -3.5057   21.6875 C   0  0  0  0  0  0  0  0  0  0  0  0
    7.0998   -2.5819   22.6567 C   0  0  0  0  0  0  0  0  0  0  0  0
    5.9222   -3.1560   23.0792 C   0  0  0  0  0  0  0  0  0  0  0  0
    5.8306   -4.3195   22.3807 N   0  0  0  0  0  0  0  0  0  0  0  0
    6.8705   -4.5585   21.5346 N   0  0  0  0  0  0  0  0  0  0  0  0
   14.3554   -1.5315   15.4091 C   0  0  0  0  0  0  0  0  0  0  0  0
   15.6068   -2.1487   15.2200 C   0  0  0  0  0  0  0  0  0  0  0  0
   16.0979   -2.3069   13.9254 C   0  0  0  0  0  0  0  0  0  0  0  0
   15.3627   -1.8611   12.8323 C   0  0  0  0  0  0  0  0  0  0  0  0
   14.1319   -1.2225   12.9992 C   0  0  0  0  0  0  0  0  0  0  0  0
   13.6426   -1.0660   14.3014 C   0  0  0  0  0  0  0  0  0  0  0  0
   10.9738    2.1557   13.2352 H   0  0  0  0  0  0  0  0  0  0  0  0
   11.7813    2.1843   14.8141 H   0  0  0  0  0  0  0  0  0  0  0  0
   12.7192    1.8627   13.3487 H   0  0  0  0  0  0  0  0  0  0  0  0
   11.4480   -0.2778   13.0133 H   0  0  0  0  0  0  0  0  0  0  0  0
   10.5143    0.0369   14.4771 H   0  0  0  0  0  0  0  0  0  0  0  0
   11.6062   -0.1929   16.7036 H   0  0  0  0  0  0  0  0  0  0  0  0
   12.9607   -3.2704   17.4434 H   0  0  0  0  0  0  0  0  0  0  0  0
   14.5446   -3.4180   19.8116 H   0  0  0  0  0  0  0  0  0  0  0  0
   13.6231   -4.7121   19.1715 H   0  0  0  0  0  0  0  0  0  0  0  0
   12.8436   -2.2279   20.7634 H   0  0  0  0  0  0  0  0  0  0  0  0
   13.1349   -3.6544   21.5598 H   0  0  0  0  0  0  0  0  0  0  0  0
   12.4350   -5.4741   21.0073 H   0  0  0  0  0  0  0  0  0  0  0  0
   10.8542   -5.8316   20.6219 H   0  0  0  0  0  0  0  0  0  0  0  0
   11.8152   -5.0728   19.3532 H   0  0  0  0  0  0  0  0  0  0  0  0
    7.4930   -1.6218   22.9585 H   0  0  0  0  0  0  0  0  0  0  0  0
    5.1493   -2.8280   23.7615 H   0  0  0  0  0  0  0  0  0  0  0  0
    5.0769   -4.9972   22.4044 H   0  0  0  0  0  0  0  0  0  0  0  0
   16.1851   -2.5062   16.0673 H   0  0  0  0  0  0  0  0  0  0  0  0
   17.0526   -2.8022   13.7661 H   0  0  0  0  0  0  0  0  0  0  0  0
   15.7559   -2.0132   11.8293 H   0  0  0  0  0  0  0  0  0  0  0  0
   13.5896   -0.8609   12.1351 H   0  0  0  0  0  0  0  0  0  0  0  0
  1  2  1  0
  2  3  1  0
  3  4  1  0
  4  5  2  0
  5  6  1  0
  6  7  2  0
  6  8  1  0
  8  9  1  0
  9 10  1  0
 10 11  1  0
 11 12  1  0
 11 13  1  0
 13 14  2  0
 13 15  1  0
 15 16  1  0
 16 17  2  0
 17 18  1  0
 18 19  1  0
  5 20  1  0
 20 21  2  0
 21 22  1  0
 22 23  2  0
 23 24  1  0
 24 25  2  0
 25  3  1  0
 19 15  2  0
 25 20  1  0
  1 26  1  0
  1 27  1  0
  1 28  1  0
  2 29  1  0
  2 30  1  0
  4 31  1  0
  8 32  1  0
  9 33  1  0
  9 34  1  0
 10 35  1  0
 10 36  1  0
 12 37  1  0
 12 38  1  0
 12 39  1  0
 16 40  1  0
 17 41  1  0
 18 42  1  0
 21 43  1  0
 22 44  1  0
 23 45  1  0
 24 46  1  0
M  END
>  <Energy>  (1332) 
357.97591703256438

>  <compound_id>  (1332) 
30262

>  <target_id>  (1332) 
1

>  <reference_id>  (1332) 
7

>  <inspiration_ids>  (1332) 
[97, 7]

>  <energy_score>  (1332) 
249.02333425392948

>  <distance_score>  (1332) 
13.888220344990707

>  <path>  (1332) 
/opt/xchem-fragalysis-2/maxwin/BulkDock/SCRATCH/511024/C30262-P7/C30262-P7.minimised.mol

>  <scratch_subdir>  (1332) 
/opt/xchem-fragalysis-2/maxwin/BulkDock/SCRATCH/511024/C30262-P7

>  <fragmenstein_runtime>  (1332) 
14.353678464889526

>  <fragmenstein_outcome>  (1332) 
too moved

>  <fragmenstein_mode>  (1332) 
expansion

>  <fragmenstein_error>  (1332) 


$$$$
C30263-P97
     RDKit          3D

 43 45  0  0  0  0  0  0  0  0999 V2000
    8.2171    0.2954   16.2172 C   0  0  0  0  0  0  0  0  0  0  0  0
    9.1680   -0.5199   15.4330 C   0  0  0  0  0  0  0  0  0  0  0  0
   10.3442    0.0510   15.0213 N   0  0  0  0  0  0  0  0  0  0  0  0
   11.3215   -0.8898   15.1822 C   0  0  0  0  0  0  0  0  0  0  0  0
   12.6981   -0.7048   15.3555 C   0  0  0  0  0  0  0  0  0  0  0  0
   13.4611   -1.8173   15.6822 C   0  0  0  0  0  0  0  0  0  0  0  0
   12.8644   -3.0615   15.7675 C   0  0  0  0  0  0  0  0  0  0  0  0
   11.5044   -3.2324   15.4647 C   0  0  0  0  0  0  0  0  0  0  0  0
   10.6663   -2.1281   15.2002 C   0  0  0  0  0  0  0  0  0  0  0  0
    9.2061   -1.8793   15.0676 C   0  0  0  0  0  0  0  0  0  0  0  0
    7.9147   -2.7789   15.1099 C   0  0  0  0  0  0  0  0  0  0  0  0
    6.8566   -2.2710   14.8356 O   0  0  0  0  0  0  0  0  0  0  0  0
    8.2402   -4.2128   15.6286 N   0  0  0  0  0  0  0  0  0  0  0  0
    7.1101   -5.6291   16.1370 C   0  0  0  0  0  0  0  0  0  0  0  0
    5.6527   -6.5739   16.8481 C   0  0  0  0  0  0  0  0  0  0  0  0
    4.3049   -5.8308   18.0275 N   0  0  0  0  0  0  0  0  0  0  0  0
    5.3999   -6.4018   17.5628 C   0  0  0  0  0  0  0  0  0  0  0  0
    2.7533   -5.9710   17.7502 C   0  0  0  0  0  0  0  0  0  0  0  0
    2.1529   -6.5648   16.9616 O   0  0  0  0  0  0  0  0  0  0  0  0
    2.0260   -5.2302   18.8276 C   0  0  0  0  0  0  0  0  0  0  0  0
    2.3395   -3.9969   19.4767 C   0  0  0  0  0  0  0  0  0  0  0  0
    1.6651   -4.0381   20.6711 C   0  0  0  0  0  0  0  0  0  0  0  0
    1.0151   -5.2102   20.6744 N   0  0  0  0  0  0  0  0  0  0  0  0
    1.0431   -5.8628   19.5159 N   0  0  0  0  0  0  0  0  0  0  0  0
    8.1770    1.3253   15.8573 H   0  0  0  0  0  0  0  0  0  0  0  0
    7.2265   -0.1552   16.2645 H   0  0  0  0  0  0  0  0  0  0  0  0
    8.5647    0.3721   17.2527 H   0  0  0  0  0  0  0  0  0  0  0  0
   10.5279    1.0438   15.0133 H   0  0  0  0  0  0  0  0  0  0  0  0
   13.1487    0.2814   15.3073 H   0  0  0  0  0  0  0  0  0  0  0  0
   14.5247   -1.7086   15.8788 H   0  0  0  0  0  0  0  0  0  0  0  0
   13.4605   -3.9232   16.0589 H   0  0  0  0  0  0  0  0  0  0  0  0
   11.1179   -4.2325   15.5413 H   0  0  0  0  0  0  0  0  0  0  0  0
    9.2529   -4.3377   15.6714 H   0  0  0  0  0  0  0  0  0  0  0  0
    6.3466   -5.0955   15.7856 H   0  0  0  0  0  0  0  0  0  0  0  0
    7.5184   -6.2882   15.4250 H   0  0  0  0  0  0  0  0  0  0  0  0
    4.9468   -6.7184   15.8621 H   0  0  0  0  0  0  0  0  0  0  0  0
    5.7551   -7.8391   16.6570 H   0  0  0  0  0  0  0  0  0  0  0  0
    4.8516   -7.3985   18.1727 H   0  0  0  0  0  0  0  0  0  0  0  0
    6.2705   -6.8917   18.4281 H   0  0  0  0  0  0  0  0  0  0  0  0
    5.9046   -5.4679   18.1994 H   0  0  0  0  0  0  0  0  0  0  0  0
    3.1133   -3.3012   19.1882 H   0  0  0  0  0  0  0  0  0  0  0  0
    1.7258   -3.5034   21.6018 H   0  0  0  0  0  0  0  0  0  0  0  0
    0.7023   -5.6796   21.5092 H   0  0  0  0  0  0  0  0  0  0  0  0
  1  2  1  0
  2  3  1  0
  3  4  1  0
  4  5  2  0
  5  6  1  0
  6  7  2  0
  7  8  1  0
  8  9  2  0
  9 10  1  0
 10 11  1  0
 11 12  2  0
 11 13  1  0
 13 14  1  0
 14 15  1  0
 15 16  1  0
 16 17  1  0
 16 18  1  0
 18 19  2  0
 18 20  1  0
 20 21  1  0
 21 22  2  0
 22 23  1  0
 23 24  1  0
 10  2  2  0
 24 20  2  0
  9  4  1  0
  1 25  1  0
  1 26  1  0
  1 27  1  0
  3 28  1  0
  5 29  1  0
  6 30  1  0
  7 31  1  0
  8 32  1  0
 13 33  1  0
 14 34  1  0
 14 35  1  0
 15 36  1  0
 15 37  1  0
 17 38  1  0
 17 39  1  0
 17 40  1  0
 21 41  1  0
 22 42  1  0
 23 43  1  0
M  END
>  <Energy>  (1333) 
995.17311045456563

>  <compound_id>  (1333) 
30263

>  <target_id>  (1333) 
1

>  <reference_id>  (1333) 
97

>  <inspiration_ids>  (1333) 
[97, 7]

>  <energy_score>  (1333) 
893.6996887440349

>  <distance_score>  (1333) 
13.707730093078307

>  <path>  (1333) 
/opt/xchem-fragalysis-2/maxwin/BulkDock/SCRATCH/511024/C30263-P97/C30263-P97.minimised.mol

>  <scratch_subdir>  (1333) 
/opt/xchem-fragalysis-2/maxwin/BulkDock/SCRATCH/511024/C30263-P97

>  <fragmenstein_runtime>  (1333) 
12.355595588684082

>  <fragmenstein_outcome>  (1333) 
too moved

>  <fragmenstein_mode>  (1333) 
expansion

>  <fragmenstein_error>  (1333) 


$$$$
C30263-P7
     RDKit          3D

 43 45  0  0  0  0  0  0  0  0999 V2000
    5.2987   -0.9037   21.2184 C   0  0  0  0  0  0  0  0  0  0  0  0
    6.4349   -0.2619   21.9052 C   0  0  0  0  0  0  0  0  0  0  0  0
    7.1170    0.7382   21.2585 N   0  0  0  0  0  0  0  0  0  0  0  0
    8.2109    1.1112   21.9859 C   0  0  0  0  0  0  0  0  0  0  0  0
    9.1495    2.1162   21.7477 C   0  0  0  0  0  0  0  0  0  0  0  0
   10.2430    2.1912   22.6162 C   0  0  0  0  0  0  0  0  0  0  0  0
   10.3795    1.3016   23.6759 C   0  0  0  0  0  0  0  0  0  0  0  0
    9.3754    0.3690   23.9519 C   0  0  0  0  0  0  0  0  0  0  0  0
    8.2475    0.2856   23.1102 C   0  0  0  0  0  0  0  0  0  0  0  0
    7.0007   -0.4442   23.1664 C   0  0  0  0  0  0  0  0  0  0  0  0
    6.5374   -1.2993   24.3092 C   0  0  0  0  0  0  0  0  0  0  0  0
    7.3490   -2.0475   24.7692 O   0  0  0  0  0  0  0  0  0  0  0  0
    5.1649   -1.0544   24.6836 N   0  0  0  0  0  0  0  0  0  0  0  0
    4.3073   -1.7103   25.6761 C   0  0  0  0  0  0  0  0  0  0  0  0
    3.5447   -0.6282   26.9174 C   0  0  0  0  0  0  0  0  0  0  0  0
    2.0385   -0.9032   28.1900 N   0  0  0  0  0  0  0  0  0  0  0  0
    3.0464   -1.0908   27.4112 C   0  0  0  0  0  0  0  0  0  0  0  0
    0.6658   -0.1038   28.0945 C   0  0  0  0  0  0  0  0  0  0  0  0
    0.2443    0.6297   27.3031 O   0  0  0  0  0  0  0  0  0  0  0  0
   -0.2280   -0.4439   29.2874 C   0  0  0  0  0  0  0  0  0  0  0  0
   -0.0385   -1.3941   30.3382 C   0  0  0  0  0  0  0  0  0  0  0  0
   -1.1519   -1.3204   31.1480 C   0  0  0  0  0  0  0  0  0  0  0  0
   -1.9371   -0.3616   30.5941 N   0  0  0  0  0  0  0  0  0  0  0  0
   -1.4243    0.1741   29.4763 N   0  0  0  0  0  0  0  0  0  0  0  0
    4.5094   -0.1694   21.0426 H   0  0  0  0  0  0  0  0  0  0  0  0
    5.5933   -1.2752   20.2349 H   0  0  0  0  0  0  0  0  0  0  0  0
    4.9208   -1.7501   21.7933 H   0  0  0  0  0  0  0  0  0  0  0  0
    6.8428    1.1506   20.3774 H   0  0  0  0  0  0  0  0  0  0  0  0
    9.0637    2.7942   20.9048 H   0  0  0  0  0  0  0  0  0  0  0  0
   11.0119    2.9425   22.4484 H   0  0  0  0  0  0  0  0  0  0  0  0
   11.2496    1.3579   24.3261 H   0  0  0  0  0  0  0  0  0  0  0  0
    9.4598   -0.2786   24.8216 H   0  0  0  0  0  0  0  0  0  0  0  0
    4.7465   -0.4046   24.0124 H   0  0  0  0  0  0  0  0  0  0  0  0
    3.5168   -2.2174   25.1175 H   0  0  0  0  0  0  0  0  0  0  0  0
    4.9174   -2.4509   26.2078 H   0  0  0  0  0  0  0  0  0  0  0  0
    4.4479    0.0386   27.4000 H   0  0  0  0  0  0  0  0  0  0  0  0
    3.1466    0.2671   26.2076 H   0  0  0  0  0  0  0  0  0  0  0  0
    2.1807   -1.6996   26.7365 H   0  0  0  0  0  0  0  0  0  0  0  0
    3.6342   -1.3231   28.5140 H   0  0  0  0  0  0  0  0  0  0  0  0
    3.2528   -2.3274   27.5408 H   0  0  0  0  0  0  0  0  0  0  0  0
    0.8129   -2.0477   30.4652 H   0  0  0  0  0  0  0  0  0  0  0  0
   -1.4347   -1.8476   32.0470 H   0  0  0  0  0  0  0  0  0  0  0  0
   -2.8345   -0.0179   30.9181 H   0  0  0  0  0  0  0  0  0  0  0  0
  1  2  1  0
  2  3  1  0
  3  4  1  0
  4  5  2  0
  5  6  1  0
  6  7  2  0
  7  8  1  0
  8  9  2  0
  9 10  1  0
 10 11  1  0
 11 12  2  0
 11 13  1  0
 13 14  1  0
 14 15  1  0
 15 16  1  0
 16 17  1  0
 16 18  1  0
 18 19  2  0
 18 20  1  0
 20 21  1  0
 21 22  2  0
 22 23  1  0
 23 24  1  0
 10  2  2  0
 24 20  2  0
  9  4  1  0
  1 25  1  0
  1 26  1  0
  1 27  1  0
  3 28  1  0
  5 29  1  0
  6 30  1  0
  7 31  1  0
  8 32  1  0
 13 33  1  0
 14 34  1  0
 14 35  1  0
 15 36  1  0
 15 37  1  0
 17 38  1  0
 17 39  1  0
 17 40  1  0
 21 41  1  0
 22 42  1  0
 23 43  1  0
M  END
>  <Energy>  (1334) 
838.97931948483335

>  <compound_id>  (1334) 
30263

>  <target_id>  (1334) 
1

>  <reference_id>  (1334) 
7

>  <inspiration_ids>  (1334) 
[97, 7]

>  <energy_score>  (1334) 
737.5058977743093

>  <distance_score>  (1334) 
13.103244578551784

>  <path>  (1334) 
/opt/xchem-fragalysis-2/maxwin/BulkDock/SCRATCH/511024/C30263-P7/C30263-P7.minimised.mol

>  <scratch_subdir>  (1334) 
/opt/xchem-fragalysis-2/maxwin/BulkDock/SCRATCH/511024/C30263-P7

>  <fragmenstein_runtime>  (1334) 
14.966493844985962

>  <fragmenstein_outcome>  (1334) 
too moved

>  <fragmenstein_mode>  (1334) 
expansion

>  <fragmenstein_error>  (1334) 


$$$$
C30264-P97
     RDKit          3D

 44 46  0  0  0  0  0  0  0  0999 V2000
    3.5300   -2.3668   24.0063 C   0  0  0  0  0  0  0  0  0  0  0  0
    4.9010   -1.7109   23.8093 C   0  0  0  0  0  0  0  0  0  0  0  0
    5.3287   -1.5824   22.0096 N   0  0  0  0  0  0  0  0  0  0  0  0
    6.6123   -0.8196   20.8338 C   0  0  0  0  0  0  0  0  0  0  0  0
    7.2299    0.2285   19.5004 C   0  0  0  0  0  0  0  0  0  0  0  0
    8.1084    1.3179   19.8305 C   0  0  0  0  0  0  0  0  0  0  0  0
    8.7741    2.1280   18.8869 C   0  0  0  0  0  0  0  0  0  0  0  0
    8.8128    1.6618   17.5724 C   0  0  0  0  0  0  0  0  0  0  0  0
    9.6628    1.9175   16.4605 C   0  0  0  0  0  0  0  0  0  0  0  0
    9.3819    0.9614   15.5170 C   0  0  0  0  0  0  0  0  0  0  0  0
    8.2818    0.2598   15.9455 N   0  0  0  0  0  0  0  0  0  0  0  0
    7.9261    0.6522   17.2236 C   0  0  0  0  0  0  0  0  0  0  0  0
    6.9491    0.1454   18.1269 C   0  0  0  0  0  0  0  0  0  0  0  0
    4.7683   -0.9080   25.4986 C   0  0  0  0  0  0  0  0  0  0  0  0
    5.8259   -0.0214   26.1890 C   0  0  0  0  0  0  0  0  0  0  0  0
    3.4492   -0.7072   26.2174 N   0  0  0  0  0  0  0  0  0  0  0  0
    2.8825   -1.3829   27.3896 C   0  0  0  0  0  0  0  0  0  0  0  0
    3.3570   -2.2087   28.1186 O   0  0  0  0  0  0  0  0  0  0  0  0
    1.4630   -0.9371   27.7929 C   0  0  0  0  0  0  0  0  0  0  0  0
    0.8179    0.3390   27.7088 C   0  0  0  0  0  0  0  0  0  0  0  0
   -0.4312    0.1947   28.2802 C   0  0  0  0  0  0  0  0  0  0  0  0
   -0.5016   -1.1039   28.6750 N   0  0  0  0  0  0  0  0  0  0  0  0
    0.6274   -1.7891   28.4482 N   0  0  0  0  0  0  0  0  0  0  0  0
    3.0414   -2.8179   23.1580 H   0  0  0  0  0  0  0  0  0  0  0  0
    2.8219   -1.6230   24.3256 H   0  0  0  0  0  0  0  0  0  0  0  0
    3.5670   -3.0847   24.8278 H   0  0  0  0  0  0  0  0  0  0  0  0
    5.7537   -2.3405   24.0753 H   0  0  0  0  0  0  0  0  0  0  0  0
    4.5785   -0.8765   21.8856 H   0  0  0  0  0  0  0  0  0  0  0  0
    7.5079   -1.3017   20.9438 H   0  0  0  0  0  0  0  0  0  0  0  0
    6.4182    0.1800   21.0907 H   0  0  0  0  0  0  0  0  0  0  0  0
    8.2655    1.6443   20.8547 H   0  0  0  0  0  0  0  0  0  0  0  0
    9.4173    2.9381   19.2180 H   0  0  0  0  0  0  0  0  0  0  0  0
   10.4654    2.6414   16.4081 H   0  0  0  0  0  0  0  0  0  0  0  0
    9.8212    0.7470   14.5502 H   0  0  0  0  0  0  0  0  0  0  0  0
    7.7959   -0.4298   15.3808 H   0  0  0  0  0  0  0  0  0  0  0  0
    6.1539   -0.4938   17.7593 H   0  0  0  0  0  0  0  0  0  0  0  0
    5.0311   -1.8096   26.0394 H   0  0  0  0  0  0  0  0  0  0  0  0
    5.6017    1.0377   26.0620 H   0  0  0  0  0  0  0  0  0  0  0  0
    5.7979   -0.1862   27.2752 H   0  0  0  0  0  0  0  0  0  0  0  0
    6.8517   -0.2479   25.8832 H   0  0  0  0  0  0  0  0  0  0  0  0
    2.8004   -0.0107   25.8934 H   0  0  0  0  0  0  0  0  0  0  0  0
    1.2323    1.2477   27.2973 H   0  0  0  0  0  0  0  0  0  0  0  0
   -1.2499    0.8836   28.4296 H   0  0  0  0  0  0  0  0  0  0  0  0
   -1.2763   -1.5931   29.1111 H   0  0  0  0  0  0  0  0  0  0  0  0
  1  2  1  0
  2  3  1  0
  3  4  1  0
  4  5  1  0
  5  6  2  0
  6  7  1  0
  7  8  2  0
  8  9  1  0
  9 10  2  0
 10 11  1  0
 11 12  1  0
 12 13  2  0
  2 14  1  0
 14 15  1  0
 14 16  1  0
 16 17  1  0
 17 18  2  0
 17 19  1  0
 19 20  1  0
 20 21  2  0
 21 22  1  0
 22 23  1  0
 13  5  1  0
 23 19  2  0
 12  8  1  0
  1 24  1  0
  1 25  1  0
  1 26  1  0
  2 27  1  0
  3 28  1  0
  4 29  1  0
  4 30  1  0
  6 31  1  0
  7 32  1  0
  9 33  1  0
 10 34  1  0
 11 35  1  0
 13 36  1  0
 14 37  1  0
 15 38  1  0
 15 39  1  0
 15 40  1  0
 16 41  1  0
 20 42  1  0
 21 43  1  0
 22 44  1  0
M  END
>  <Energy>  (1335) 
411.57385682268881

>  <compound_id>  (1335) 
30264

>  <target_id>  (1335) 
1

>  <reference_id>  (1335) 
97

>  <inspiration_ids>  (1335) 
[97, 7]

>  <energy_score>  (1335) 
299.12479886205375

>  <distance_score>  (1335) 
10.69867812140932

>  <path>  (1335) 
/opt/xchem-fragalysis-2/maxwin/BulkDock/SCRATCH/511024/C30264-P97/C30264-P97.minimised.mol

>  <scratch_subdir>  (1335) 
/opt/xchem-fragalysis-2/maxwin/BulkDock/SCRATCH/511024/C30264-P97

>  <fragmenstein_runtime>  (1335) 
15.4993417263031

>  <fragmenstein_outcome>  (1335) 
too moved

>  <fragmenstein_mode>  (1335) 
expansion

>  <fragmenstein_error>  (1335) 


$$$$
C30264-P7
     RDKit          3D

 44 46  0  0  0  0  0  0  0  0999 V2000
   -0.9848    0.1459   28.9825 C   0  0  0  0  0  0  0  0  0  0  0  0
    0.0570   -0.2146   30.0506 C   0  0  0  0  0  0  0  0  0  0  0  0
    0.3061   -1.6591   29.9218 N   0  0  0  0  0  0  0  0  0  0  0  0
    1.6942   -2.0925   30.1511 C   0  0  0  0  0  0  0  0  0  0  0  0
    2.7479   -1.7401   29.0994 C   0  0  0  0  0  0  0  0  0  0  0  0
    4.0648   -1.4654   29.5222 C   0  0  0  0  0  0  0  0  0  0  0  0
    5.1110   -1.2478   28.6216 C   0  0  0  0  0  0  0  0  0  0  0  0
    4.8266   -1.3235   27.2583 C   0  0  0  0  0  0  0  0  0  0  0  0
    5.6357   -1.2860   26.1150 C   0  0  0  0  0  0  0  0  0  0  0  0
    4.8303   -1.5074   25.0287 C   0  0  0  0  0  0  0  0  0  0  0  0
    3.5591   -1.6930   25.4729 N   0  0  0  0  0  0  0  0  0  0  0  0
    3.5312   -1.6032   26.8385 C   0  0  0  0  0  0  0  0  0  0  0  0
    2.4742   -1.8122   27.7270 C   0  0  0  0  0  0  0  0  0  0  0  0
   -0.3976    0.3408   31.4546 C   0  0  0  0  0  0  0  0  0  0  0  0
    0.5715   -0.0138   32.5813 C   0  0  0  0  0  0  0  0  0  0  0  0
   -1.7725    0.0749   31.8863 N   0  0  0  0  0  0  0  0  0  0  0  0
   -2.4276   -1.1470   32.2339 C   0  0  0  0  0  0  0  0  0  0  0  0
   -2.0448   -2.2794   32.1861 O   0  0  0  0  0  0  0  0  0  0  0  0
   -3.7808   -0.8519   32.8379 C   0  0  0  0  0  0  0  0  0  0  0  0
   -4.7173   -1.8023   33.3479 C   0  0  0  0  0  0  0  0  0  0  0  0
   -5.7791   -1.0744   33.8277 C   0  0  0  0  0  0  0  0  0  0  0  0
   -5.4601    0.2284   33.6058 N   0  0  0  0  0  0  0  0  0  0  0  0
   -4.2690    0.4074   32.9884 N   0  0  0  0  0  0  0  0  0  0  0  0
   -1.9307   -0.3837   29.1396 H   0  0  0  0  0  0  0  0  0  0  0  0
   -1.1928    1.2210   28.9894 H   0  0  0  0  0  0  0  0  0  0  0  0
   -0.6217   -0.1098   27.9802 H   0  0  0  0  0  0  0  0  0  0  0  0
    0.9738    0.3264   29.7810 H   0  0  0  0  0  0  0  0  0  0  0  0
   -0.3144   -2.1578   30.5658 H   0  0  0  0  0  0  0  0  0  0  0  0
    1.6836   -3.1890   30.2043 H   0  0  0  0  0  0  0  0  0  0  0  0
    2.0318   -1.7519   31.1343 H   0  0  0  0  0  0  0  0  0  0  0  0
    4.2931   -1.4385   30.5859 H   0  0  0  0  0  0  0  0  0  0  0  0
    6.1206   -1.0665   28.9723 H   0  0  0  0  0  0  0  0  0  0  0  0
    6.7129   -1.2709   26.1454 H   0  0  0  0  0  0  0  0  0  0  0  0
    5.0228   -1.6481   23.9858 H   0  0  0  0  0  0  0  0  0  0  0  0
    2.7673   -1.9542   24.8952 H   0  0  0  0  0  0  0  0  0  0  0  0
    1.4806   -2.0640   27.3714 H   0  0  0  0  0  0  0  0  0  0  0  0
   -0.3687    1.4351   31.3593 H   0  0  0  0  0  0  0  0  0  0  0  0
    0.3039    0.5209   33.4999 H   0  0  0  0  0  0  0  0  0  0  0  0
    0.5473   -1.0829   32.8153 H   0  0  0  0  0  0  0  0  0  0  0  0
    1.5967    0.2682   32.3212 H   0  0  0  0  0  0  0  0  0  0  0  0
   -2.3751    0.8556   32.1365 H   0  0  0  0  0  0  0  0  0  0  0  0
   -4.6003   -2.8784   33.3547 H   0  0  0  0  0  0  0  0  0  0  0  0
   -6.7068   -1.3621   34.3010 H   0  0  0  0  0  0  0  0  0  0  0  0
   -6.0078    1.0485   33.8470 H   0  0  0  0  0  0  0  0  0  0  0  0
  1  2  1  0
  2  3  1  0
  3  4  1  0
  4  5  1  0
  5  6  2  0
  6  7  1  0
  7  8  2  0
  8  9  1  0
  9 10  2  0
 10 11  1  0
 11 12  1  0
 12 13  2  0
  2 14  1  0
 14 15  1  0
 14 16  1  0
 16 17  1  0
 17 18  2  0
 17 19  1  0
 19 20  1  0
 20 21  2  0
 21 22  1  0
 22 23  1  0
 13  5  1  0
 23 19  2  0
 12  8  1  0
  1 24  1  0
  1 25  1  0
  1 26  1  0
  2 27  1  0
  3 28  1  0
  4 29  1  0
  4 30  1  0
  6 31  1  0
  7 32  1  0
  9 33  1  0
 10 34  1  0
 11 35  1  0
 13 36  1  0
 14 37  1  0
 15 38  1  0
 15 39  1  0
 15 40  1  0
 16 41  1  0
 20 42  1  0
 21 43  1  0
 22 44  1  0
M  END
>  <Energy>  (1336) 
63.657120543661691

>  <compound_id>  (1336) 
30264

>  <target_id>  (1336) 
1

>  <reference_id>  (1336) 
7

>  <inspiration_ids>  (1336) 
[97, 7]

>  <energy_score>  (1336) 
-48.7919374169783

>  <distance_score>  (1336) 
12.853681148516992

>  <path>  (1336) 
/opt/xchem-fragalysis-2/maxwin/BulkDock/SCRATCH/511024/C30264-P7/C30264-P7.minimised.mol

>  <scratch_subdir>  (1336) 
/opt/xchem-fragalysis-2/maxwin/BulkDock/SCRATCH/511024/C30264-P7

>  <fragmenstein_runtime>  (1336) 
17.688127756118774

>  <fragmenstein_outcome>  (1336) 
too moved

>  <fragmenstein_mode>  (1336) 
expansion

>  <fragmenstein_error>  (1336) 


$$$$
C30265-P97
     RDKit          3D

 41 43  0  0  0  0  0  0  0  0999 V2000
    3.3136   -1.8714   28.0342 N   0  0  0  0  0  0  0  0  0  0  0  0
    2.6445   -0.8189   27.2286 C   0  0  0  0  0  0  0  0  0  0  0  0
    1.6415    0.0363   28.0961 C   0  0  0  0  0  0  0  0  0  0  0  0
    0.3824   -0.5786   28.7392 C   0  0  0  0  0  0  0  0  0  0  0  0
   -0.9460   -0.0412   28.7196 C   0  0  0  0  0  0  0  0  0  0  0  0
   -1.6862   -0.8129   29.5865 C   0  0  0  0  0  0  0  0  0  0  0  0
   -0.8139   -1.7343   30.0816 N   0  0  0  0  0  0  0  0  0  0  0  0
    0.4343   -1.6292   29.5760 N   0  0  0  0  0  0  0  0  0  0  0  0
    3.8092    0.1309   26.6241 C   0  0  0  0  0  0  0  0  0  0  0  0
    4.0329    1.1427   27.2357 O   0  0  0  0  0  0  0  0  0  0  0  0
    4.4427   -0.4163   25.4263 N   0  0  0  0  0  0  0  0  0  0  0  0
    5.4897    0.1489   24.5346 C   0  0  0  0  0  0  0  0  0  0  0  0
    6.1331   -0.7392   23.4097 C   0  0  0  0  0  0  0  0  0  0  0  0
    7.1290   -0.0190   22.4910 C   0  0  0  0  0  0  0  0  0  0  0  0
    8.3165    0.5114   23.0402 C   0  0  0  0  0  0  0  0  0  0  0  0
    9.2228    1.2591   22.2895 C   0  0  0  0  0  0  0  0  0  0  0  0
    8.9863    1.5042   20.9395 C   0  0  0  0  0  0  0  0  0  0  0  0
    7.8745    0.9172   20.3167 C   0  0  0  0  0  0  0  0  0  0  0  0
    7.3915    0.9345   18.9794 C   0  0  0  0  0  0  0  0  0  0  0  0
    6.2085    0.2386   18.9642 C   0  0  0  0  0  0  0  0  0  0  0  0
    5.9694   -0.2166   20.2363 N   0  0  0  0  0  0  0  0  0  0  0  0
    6.9739    0.1817   21.0956 C   0  0  0  0  0  0  0  0  0  0  0  0
    3.8145   -1.4005   28.7911 H   0  0  0  0  0  0  0  0  0  0  0  0
    2.5627   -2.3783   28.5181 H   0  0  0  0  0  0  0  0  0  0  0  0
    2.1139   -1.2946   26.4072 H   0  0  0  0  0  0  0  0  0  0  0  0
    1.3009    0.8705   27.4667 H   0  0  0  0  0  0  0  0  0  0  0  0
    2.2016    0.5035   28.9191 H   0  0  0  0  0  0  0  0  0  0  0  0
   -1.2854    0.8289   28.1754 H   0  0  0  0  0  0  0  0  0  0  0  0
   -2.7154   -0.7664   29.9109 H   0  0  0  0  0  0  0  0  0  0  0  0
   -0.9869   -2.4566   30.7730 H   0  0  0  0  0  0  0  0  0  0  0  0
    3.9394   -1.2529   25.1369 H   0  0  0  0  0  0  0  0  0  0  0  0
    6.2750    0.5221   25.2024 H   0  0  0  0  0  0  0  0  0  0  0  0
    5.0431    1.0404   24.0787 H   0  0  0  0  0  0  0  0  0  0  0  0
    6.6550   -1.5821   23.8783 H   0  0  0  0  0  0  0  0  0  0  0  0
    5.3341   -1.1814   22.8060 H   0  0  0  0  0  0  0  0  0  0  0  0
    8.5251    0.3699   24.1009 H   0  0  0  0  0  0  0  0  0  0  0  0
   10.1019    1.6816   22.7710 H   0  0  0  0  0  0  0  0  0  0  0  0
    9.6575    2.1483   20.3802 H   0  0  0  0  0  0  0  0  0  0  0  0
    7.8432    1.4377   18.1346 H   0  0  0  0  0  0  0  0  0  0  0  0
    5.5056    0.0320   18.1681 H   0  0  0  0  0  0  0  0  0  0  0  0
    5.1601   -0.7524   20.5228 H   0  0  0  0  0  0  0  0  0  0  0  0
  1  2  1  0
  2  3  1  0
  3  4  1  0
  4  5  1  0
  5  6  2  0
  6  7  1  0
  7  8  1  0
  2  9  1  0
  9 10  2  0
  9 11  1  0
 11 12  1  0
 12 13  1  0
 13 14  1  0
 14 15  2  0
 15 16  1  0
 16 17  2  0
 17 18  1  0
 18 19  1  0
 19 20  2  0
 20 21  1  0
 21 22  1  0
  8  4  2  0
 22 14  1  0
 22 18  2  0
  1 23  1  0
  1 24  1  0
  2 25  1  0
  3 26  1  0
  3 27  1  0
  5 28  1  0
  6 29  1  0
  7 30  1  0
 11 31  1  0
 12 32  1  0
 12 33  1  0
 13 34  1  0
 13 35  1  0
 15 36  1  0
 16 37  1  0
 17 38  1  0
 19 39  1  0
 20 40  1  0
 21 41  1  0
M  END
>  <Energy>  (1337) 
80.5104849448458

>  <compound_id>  (1337) 
30265

>  <target_id>  (1337) 
1

>  <reference_id>  (1337) 
97

>  <inspiration_ids>  (1337) 
[97, 7]

>  <energy_score>  (1337) 
-22.060926250902384

>  <distance_score>  (1337) 
12.892370640576344

>  <path>  (1337) 
/opt/xchem-fragalysis-2/maxwin/BulkDock/SCRATCH/511024/C30265-P97/C30265-P97.minimised.mol

>  <scratch_subdir>  (1337) 
/opt/xchem-fragalysis-2/maxwin/BulkDock/SCRATCH/511024/C30265-P97

>  <fragmenstein_runtime>  (1337) 
8.40170955657959

>  <fragmenstein_outcome>  (1337) 
too moved

>  <fragmenstein_mode>  (1337) 
expansion

>  <fragmenstein_error>  (1337) 


$$$$
C30265-P7
     RDKit          3D

 41 43  0  0  0  0  0  0  0  0999 V2000
    2.6226   -2.2599   27.1896 N   0  0  0  0  0  0  0  0  0  0  0  0
    2.5956   -0.8168   27.4981 C   0  0  0  0  0  0  0  0  0  0  0  0
    2.1037   -0.5484   28.9683 C   0  0  0  0  0  0  0  0  0  0  0  0
    0.6154   -0.8045   29.3088 C   0  0  0  0  0  0  0  0  0  0  0  0
   -0.2090   -0.0765   30.2255 C   0  0  0  0  0  0  0  0  0  0  0  0
   -1.4292   -0.7152   30.2317 C   0  0  0  0  0  0  0  0  0  0  0  0
   -1.3010   -1.7527   29.3567 N   0  0  0  0  0  0  0  0  0  0  0  0
   -0.0705   -1.8444   28.8064 N   0  0  0  0  0  0  0  0  0  0  0  0
    4.0315   -0.1644   27.1431 C   0  0  0  0  0  0  0  0  0  0  0  0
    4.5442    0.5137   27.9939 O   0  0  0  0  0  0  0  0  0  0  0  0
    4.4463   -0.4386   25.7591 N   0  0  0  0  0  0  0  0  0  0  0  0
    5.5664    0.1111   24.9529 C   0  0  0  0  0  0  0  0  0  0  0  0
    6.2200   -0.7587   23.8109 C   0  0  0  0  0  0  0  0  0  0  0  0
    7.0997    0.0232   22.8289 C   0  0  0  0  0  0  0  0  0  0  0  0
    8.2214    0.7238   23.3183 C   0  0  0  0  0  0  0  0  0  0  0  0
    8.9591    1.5972   22.5243 C   0  0  0  0  0  0  0  0  0  0  0  0
    8.6155    1.7948   21.1895 C   0  0  0  0  0  0  0  0  0  0  0  0
    7.6060    1.0093   20.6126 C   0  0  0  0  0  0  0  0  0  0  0  0
    7.0860    0.9123   19.2920 C   0  0  0  0  0  0  0  0  0  0  0  0
    6.0422    0.0234   19.3302 C   0  0  0  0  0  0  0  0  0  0  0  0
    5.9239   -0.4328   20.6195 N   0  0  0  0  0  0  0  0  0  0  0  0
    6.8722    0.1497   21.4353 C   0  0  0  0  0  0  0  0  0  0  0  0
    2.4171   -2.3815   26.1901 H   0  0  0  0  0  0  0  0  0  0  0  0
    1.7781   -2.6526   27.6276 H   0  0  0  0  0  0  0  0  0  0  0  0
    1.8745   -0.3217   26.8520 H   0  0  0  0  0  0  0  0  0  0  0  0
    2.7107   -1.1411   29.6657 H   0  0  0  0  0  0  0  0  0  0  0  0
    2.3033    0.5039   29.2102 H   0  0  0  0  0  0  0  0  0  0  0  0
    0.0723    0.7919   30.8051 H   0  0  0  0  0  0  0  0  0  0  0  0
   -2.3501   -0.5266   30.7634 H   0  0  0  0  0  0  0  0  0  0  0  0
   -1.9985   -2.4364   29.0743 H   0  0  0  0  0  0  0  0  0  0  0  0
    3.7269   -0.9911   25.2994 H   0  0  0  0  0  0  0  0  0  0  0  0
    5.1665    1.0305   24.5085 H   0  0  0  0  0  0  0  0  0  0  0  0
    6.3388    0.4257   25.6639 H   0  0  0  0  0  0  0  0  0  0  0  0
    5.4335   -1.2832   23.2606 H   0  0  0  0  0  0  0  0  0  0  0  0
    6.8371   -1.5394   24.2703 H   0  0  0  0  0  0  0  0  0  0  0  0
    8.4923    0.6334   24.3705 H   0  0  0  0  0  0  0  0  0  0  0  0
    9.7777    2.1630   22.9635 H   0  0  0  0  0  0  0  0  0  0  0  0
    9.1474    2.5341   20.5975 H   0  0  0  0  0  0  0  0  0  0  0  0
    7.4182    1.4655   18.4238 H   0  0  0  0  0  0  0  0  0  0  0  0
    5.3622   -0.3245   18.5646 H   0  0  0  0  0  0  0  0  0  0  0  0
    5.2348   -1.1003   20.9403 H   0  0  0  0  0  0  0  0  0  0  0  0
  1  2  1  0
  2  3  1  0
  3  4  1  0
  4  5  1  0
  5  6  2  0
  6  7  1  0
  7  8  1  0
  2  9  1  0
  9 10  2  0
  9 11  1  0
 11 12  1  0
 12 13  1  0
 13 14  1  0
 14 15  2  0
 15 16  1  0
 16 17  2  0
 17 18  1  0
 18 19  1  0
 19 20  2  0
 20 21  1  0
 21 22  1  0
  8  4  2  0
 22 14  1  0
 22 18  2  0
  1 23  1  0
  1 24  1  0
  2 25  1  0
  3 26  1  0
  3 27  1  0
  5 28  1  0
  6 29  1  0
  7 30  1  0
 11 31  1  0
 12 32  1  0
 12 33  1  0
 13 34  1  0
 13 35  1  0
 15 36  1  0
 16 37  1  0
 17 38  1  0
 19 39  1  0
 20 40  1  0
 21 41  1  0
M  END
>  <Energy>  (1338) 
81.022753679679568

>  <compound_id>  (1338) 
30265

>  <target_id>  (1338) 
1

>  <reference_id>  (1338) 
7

>  <inspiration_ids>  (1338) 
[97, 7]

>  <energy_score>  (1338) 
-21.548657516068857

>  <distance_score>  (1338) 
13.037696355517681

>  <path>  (1338) 
/opt/xchem-fragalysis-2/maxwin/BulkDock/SCRATCH/511024/C30265-P7/C30265-P7.minimised.mol

>  <scratch_subdir>  (1338) 
/opt/xchem-fragalysis-2/maxwin/BulkDock/SCRATCH/511024/C30265-P7

>  <fragmenstein_runtime>  (1338) 
9.475466012954712

>  <fragmenstein_outcome>  (1338) 
too moved

>  <fragmenstein_mode>  (1338) 
expansion

>  <fragmenstein_error>  (1338) 


$$$$
C30266-P97
     RDKit          3D

 36 38  0  0  0  0  0  0  0  0999 V2000
    6.9285   -2.9489   23.0235 O   0  0  0  0  0  0  0  0  0  0  0  0
    6.0363   -2.2653   22.5607 C   0  0  0  0  0  0  0  0  0  0  0  0
    4.7441   -1.7053   23.2315 N   0  0  0  0  0  0  0  0  0  0  0  0
    4.1588   -1.9317   24.6289 C   0  0  0  0  0  0  0  0  0  0  0  0
    4.1362   -0.9348   25.8293 C   0  0  0  0  0  0  0  0  0  0  0  0
    2.9247   -1.0491   26.8431 C   0  0  0  0  0  0  0  0  0  0  0  0
    2.1123    0.0197   27.3581 C   0  0  0  0  0  0  0  0  0  0  0  0
    1.1640   -0.5621   28.1707 C   0  0  0  0  0  0  0  0  0  0  0  0
    1.4398   -1.8938   28.1361 N   0  0  0  0  0  0  0  0  0  0  0  0
    2.5389   -2.2048   27.4176 N   0  0  0  0  0  0  0  0  0  0  0  0
    6.1667   -2.0037   20.9932 C   0  0  0  0  0  0  0  0  0  0  0  0
    6.8615   -0.8803   20.0918 C   0  0  0  0  0  0  0  0  0  0  0  0
    6.1723   -0.7506   18.3146 C   0  0  0  0  0  0  0  0  0  0  0  0
    6.3350    0.0071   17.1647 C   0  0  0  0  0  0  0  0  0  0  0  0
    5.4183   -0.3752   16.1484 C   0  0  0  0  0  0  0  0  0  0  0  0
    4.1613   -0.9872   16.1778 C   0  0  0  0  0  0  0  0  0  0  0  0
    3.9253   -1.9114   17.1743 C   0  0  0  0  0  0  0  0  0  0  0  0
    2.9109   -2.9941   16.8246 C   0  0  0  0  0  0  0  0  0  0  0  0
    3.1145   -4.2013   17.4197 F   0  0  0  0  0  0  0  0  0  0  0  0
    1.6273   -2.6275   17.0875 F   0  0  0  0  0  0  0  0  0  0  0  0
    2.9159   -3.2840   15.4844 F   0  0  0  0  0  0  0  0  0  0  0  0
    4.9628   -1.8402   18.2166 C   0  0  0  0  0  0  0  0  0  0  0  0
    5.3892   -2.8260   19.7058 N   0  0  0  0  0  0  0  0  0  0  0  0
    4.2621   -1.1029   22.5807 H   0  0  0  0  0  0  0  0  0  0  0  0
    3.1076   -1.9480   24.3440 H   0  0  0  0  0  0  0  0  0  0  0  0
    4.2419   -2.9593   24.9246 H   0  0  0  0  0  0  0  0  0  0  0  0
    5.0643   -1.0324   26.4035 H   0  0  0  0  0  0  0  0  0  0  0  0
    4.1075    0.0865   25.4368 H   0  0  0  0  0  0  0  0  0  0  0  0
    2.2077    1.0697   27.1222 H   0  0  0  0  0  0  0  0  0  0  0  0
    0.3387   -0.1608   28.7390 H   0  0  0  0  0  0  0  0  0  0  0  0
    0.9413   -2.6496   28.5904 H   0  0  0  0  0  0  0  0  0  0  0  0
    6.8664    0.0461   20.6330 H   0  0  0  0  0  0  0  0  0  0  0  0
    7.2399    0.5540   16.9492 H   0  0  0  0  0  0  0  0  0  0  0  0
    5.9166   -0.6941   15.2185 H   0  0  0  0  0  0  0  0  0  0  0  0
    3.6145   -1.0738   15.2358 H   0  0  0  0  0  0  0  0  0  0  0  0
    5.1520   -3.7955   19.7837 H   0  0  0  0  0  0  0  0  0  0  0  0
  1  2  2  0
  2  3  1  0
  3  4  1  0
  4  5  1  0
  5  6  1  0
  6  7  1  0
  7  8  2  0
  8  9  1  0
  9 10  1  0
  2 11  1  0
 11 12  2  0
 12 13  1  0
 13 14  2  0
 14 15  1  0
 15 16  2  0
 16 17  1  0
 17 18  1  0
 18 19  1  0
 18 20  1  0
 18 21  1  0
 17 22  2  0
 22 23  1  0
 10  6  2  0
 23 11  1  0
 22 13  1  0
  3 24  1  0
  4 25  1  0
  4 26  1  0
  5 27  1  0
  5 28  1  0
  7 29  1  0
  8 30  1  0
  9 31  1  0
 12 32  1  0
 14 33  1  0
 15 34  1  0
 16 35  1  0
 23 36  1  0
M  END
>  <Energy>  (1339) 
302.44517565369279

>  <compound_id>  (1339) 
30266

>  <target_id>  (1339) 
1

>  <reference_id>  (1339) 
97

>  <inspiration_ids>  (1339) 
[97, 7]

>  <energy_score>  (1339) 
269.5961042939

>  <distance_score>  (1339) 
12.531839903727871

>  <path>  (1339) 
/opt/xchem-fragalysis-2/maxwin/BulkDock/SCRATCH/511024/C30266-P97/C30266-P97.minimised.mol

>  <scratch_subdir>  (1339) 
/opt/xchem-fragalysis-2/maxwin/BulkDock/SCRATCH/511024/C30266-P97

>  <fragmenstein_runtime>  (1339) 
7.032470941543579

>  <fragmenstein_outcome>  (1339) 
too moved

>  <fragmenstein_mode>  (1339) 
expansion

>  <fragmenstein_error>  (1339) 


$$$$
C30266-P7
     RDKit          3D

 36 38  0  0  0  0  0  0  0  0999 V2000
    8.0201   -4.0283   24.9262 O   0  0  0  0  0  0  0  0  0  0  0  0
    7.2017   -3.6629   24.0970 C   0  0  0  0  0  0  0  0  0  0  0  0
    5.8144   -2.5332   24.3733 N   0  0  0  0  0  0  0  0  0  0  0  0
    5.3836   -1.6872   25.6866 C   0  0  0  0  0  0  0  0  0  0  0  0
    4.0213   -2.1891   26.3688 C   0  0  0  0  0  0  0  0  0  0  0  0
    3.0116   -1.4024   27.2446 C   0  0  0  0  0  0  0  0  0  0  0  0
    2.7207   -0.0207   27.3845 C   0  0  0  0  0  0  0  0  0  0  0  0
    1.6388    0.0644   28.2408 C   0  0  0  0  0  0  0  0  0  0  0  0
    1.3314   -1.2170   28.5746 N   0  0  0  0  0  0  0  0  0  0  0  0
    2.1576   -2.1180   28.0217 N   0  0  0  0  0  0  0  0  0  0  0  0
    7.6223   -4.2545   22.5845 C   0  0  0  0  0  0  0  0  0  0  0  0
    7.9218   -3.1932   21.4506 C   0  0  0  0  0  0  0  0  0  0  0  0
    9.5270   -3.2792   20.6023 C   0  0  0  0  0  0  0  0  0  0  0  0
   11.2081   -3.4226   21.4614 C   0  0  0  0  0  0  0  0  0  0  0  0
   12.4133   -4.1853   21.8126 C   0  0  0  0  0  0  0  0  0  0  0  0
   12.3655   -5.4252   21.3527 C   0  0  0  0  0  0  0  0  0  0  0  0
   11.3956   -5.3729   20.3588 C   0  0  0  0  0  0  0  0  0  0  0  0
   12.4927   -4.6402   19.0859 C   0  0  0  0  0  0  0  0  0  0  0  0
   13.6395   -5.3727   18.9103 F   0  0  0  0  0  0  0  0  0  0  0  0
   11.9818   -4.4977   17.8189 F   0  0  0  0  0  0  0  0  0  0  0  0
   12.9833   -3.3914   19.3971 F   0  0  0  0  0  0  0  0  0  0  0  0
    9.7168   -4.7885   20.3448 C   0  0  0  0  0  0  0  0  0  0  0  0
    8.0936   -4.2067   20.9417 N   0  0  0  0  0  0  0  0  0  0  0  0
    5.3510   -2.3383   23.4924 H   0  0  0  0  0  0  0  0  0  0  0  0
    6.2272   -1.6121   26.3805 H   0  0  0  0  0  0  0  0  0  0  0  0
    5.1548   -0.6966   25.2877 H   0  0  0  0  0  0  0  0  0  0  0  0
    4.3151   -2.9586   27.0808 H   0  0  0  0  0  0  0  0  0  0  0  0
    3.4362   -2.6680   25.5777 H   0  0  0  0  0  0  0  0  0  0  0  0
    3.2204    0.8002   26.8904 H   0  0  0  0  0  0  0  0  0  0  0  0
    1.0752    0.9045   28.6176 H   0  0  0  0  0  0  0  0  0  0  0  0
    0.5861   -1.5542   29.1737 H   0  0  0  0  0  0  0  0  0  0  0  0
    7.3463   -2.2123   21.1968 H   0  0  0  0  0  0  0  0  0  0  0  0
   11.0285   -3.0844   22.5747 H   0  0  0  0  0  0  0  0  0  0  0  0
   13.1344   -3.8141   22.5299 H   0  0  0  0  0  0  0  0  0  0  0  0
   13.2305   -6.0714   21.3785 H   0  0  0  0  0  0  0  0  0  0  0  0
    7.3763   -4.4156   20.1914 H   0  0  0  0  0  0  0  0  0  0  0  0
  1  2  2  0
  2  3  1  0
  3  4  1  0
  4  5  1  0
  5  6  1  0
  6  7  1  0
  7  8  2  0
  8  9  1  0
  9 10  1  0
  2 11  1  0
 11 12  2  0
 12 13  1  0
 13 14  2  0
 14 15  1  0
 15 16  2  0
 16 17  1  0
 17 18  1  0
 18 19  1  0
 18 20  1  0
 18 21  1  0
 17 22  2  0
 22 23  1  0
 10  6  2  0
 23 11  1  0
 22 13  1  0
  3 24  1  0
  4 25  1  0
  4 26  1  0
  5 27  1  0
  5 28  1  0
  7 29  1  0
  8 30  1  0
  9 31  1  0
 12 32  1  0
 14 33  1  0
 15 34  1  0
 16 35  1  0
 23 36  1  0
M  END
>  <Energy>  (1340) 
757.91470627071976

>  <compound_id>  (1340) 
30266

>  <target_id>  (1340) 
1

>  <reference_id>  (1340) 
7

>  <inspiration_ids>  (1340) 
[97, 7]

>  <energy_score>  (1340) 
725.0656349109234

>  <distance_score>  (1340) 
12.06621114299583

>  <path>  (1340) 
/opt/xchem-fragalysis-2/maxwin/BulkDock/SCRATCH/511024/C30266-P7/C30266-P7.minimised.mol

>  <scratch_subdir>  (1340) 
/opt/xchem-fragalysis-2/maxwin/BulkDock/SCRATCH/511024/C30266-P7

>  <fragmenstein_runtime>  (1340) 
8.74495816230774

>  <fragmenstein_outcome>  (1340) 
too moved

>  <fragmenstein_mode>  (1340) 
expansion

>  <fragmenstein_error>  (1340) 


$$$$
C30267-P97
     RDKit          3D

 43 45  0  0  0  0  0  0  0  0999 V2000
   10.3978   -1.2064   15.3808 C   0  0  0  0  0  0  0  0  0  0  0  0
    9.6032   -0.7296   16.4698 O   0  0  0  0  0  0  0  0  0  0  0  0
    8.3610   -0.1964   16.0589 C   0  0  0  0  0  0  0  0  0  0  0  0
    7.5666    0.5195   17.1944 C   0  0  0  0  0  0  0  0  0  0  0  0
    8.3529    1.1578   18.2241 N   0  0  0  0  0  0  0  0  0  0  0  0
    8.0634    1.2121   19.6011 C   0  0  0  0  0  0  0  0  0  0  0  0
    8.3221    0.2826   20.7804 C   0  0  0  0  0  0  0  0  0  0  0  0
    9.2518    0.6884   21.4227 O   0  0  0  0  0  0  0  0  0  0  0  0
    7.3900   -0.8793   21.0406 N   0  0  0  0  0  0  0  0  0  0  0  0
    7.2710   -1.9157   22.3625 C   0  0  0  0  0  0  0  0  0  0  0  0
    6.0606   -2.1408   23.4065 C   0  0  0  0  0  0  0  0  0  0  0  0
    5.0968   -1.6290   24.7623 C   0  0  0  0  0  0  0  0  0  0  0  0
    3.7031   -1.8997   24.9264 C   0  0  0  0  0  0  0  0  0  0  0  0
    3.3316   -1.4567   26.1746 C   0  0  0  0  0  0  0  0  0  0  0  0
    4.4705   -0.9588   26.7098 N   0  0  0  0  0  0  0  0  0  0  0  0
    5.5513   -1.0384   25.9005 N   0  0  0  0  0  0  0  0  0  0  0  0
    8.2592    2.5891   19.8605 C   0  0  0  0  0  0  0  0  0  0  0  0
    9.1290    3.1363   18.8823 C   0  0  0  0  0  0  0  0  0  0  0  0
    9.9311    4.2898   18.8221 C   0  0  0  0  0  0  0  0  0  0  0  0
   10.7823    4.4860   17.7300 C   0  0  0  0  0  0  0  0  0  0  0  0
   10.8174    3.5709   16.6894 C   0  0  0  0  0  0  0  0  0  0  0  0
   10.0053    2.4399   16.7182 C   0  0  0  0  0  0  0  0  0  0  0  0
    9.1836    2.2247   17.8452 C   0  0  0  0  0  0  0  0  0  0  0  0
    9.9377   -2.1006   14.9587 H   0  0  0  0  0  0  0  0  0  0  0  0
   10.5347   -0.4274   14.6260 H   0  0  0  0  0  0  0  0  0  0  0  0
   11.3809   -1.4816   15.7725 H   0  0  0  0  0  0  0  0  0  0  0  0
    7.7518   -0.9959   15.6220 H   0  0  0  0  0  0  0  0  0  0  0  0
    8.5890    0.5172   15.2659 H   0  0  0  0  0  0  0  0  0  0  0  0
    6.7969   -0.0900   17.6678 H   0  0  0  0  0  0  0  0  0  0  0  0
    6.9941    1.3450   16.7600 H   0  0  0  0  0  0  0  0  0  0  0  0
    6.6508   -0.8875   20.3248 H   0  0  0  0  0  0  0  0  0  0  0  0
    7.4842   -2.8893   21.9289 H   0  0  0  0  0  0  0  0  0  0  0  0
    8.1017   -1.6354   23.0210 H   0  0  0  0  0  0  0  0  0  0  0  0
    5.2694   -2.1144   22.6657 H   0  0  0  0  0  0  0  0  0  0  0  0
    6.4901   -3.0294   23.8815 H   0  0  0  0  0  0  0  0  0  0  0  0
    3.0925   -2.3830   24.1872 H   0  0  0  0  0  0  0  0  0  0  0  0
    2.3911   -1.4740   26.7017 H   0  0  0  0  0  0  0  0  0  0  0  0
    4.6045   -0.5574   27.6287 H   0  0  0  0  0  0  0  0  0  0  0  0
    8.1337    3.0273   20.8452 H   0  0  0  0  0  0  0  0  0  0  0  0
    9.9233    5.0039   19.6411 H   0  0  0  0  0  0  0  0  0  0  0  0
   11.4234    5.3639   17.7042 H   0  0  0  0  0  0  0  0  0  0  0  0
   11.4946    3.7312   15.8543 H   0  0  0  0  0  0  0  0  0  0  0  0
   10.1119    1.7223   15.9191 H   0  0  0  0  0  0  0  0  0  0  0  0
  1  2  1  0
  2  3  1  0
  3  4  1  0
  4  5  1  0
  5  6  1  0
  6  7  1  0
  7  8  2  0
  7  9  1  0
  9 10  1  0
 10 11  1  0
 11 12  1  0
 12 13  1  0
 13 14  2  0
 14 15  1  0
 15 16  1  0
  6 17  2  0
 17 18  1  0
 18 19  2  0
 19 20  1  0
 20 21  2  0
 21 22  1  0
 22 23  2  0
 23  5  1  0
 16 12  2  0
 23 18  1  0
  1 24  1  0
  1 25  1  0
  1 26  1  0
  3 27  1  0
  3 28  1  0
  4 29  1  0
  4 30  1  0
  9 31  1  0
 10 32  1  0
 10 33  1  0
 11 34  1  0
 11 35  1  0
 13 36  1  0
 14 37  1  0
 15 38  1  0
 17 39  1  0
 19 40  1  0
 20 41  1  0
 21 42  1  0
 22 43  1  0
M  END
>  <Energy>  (1341) 
170.78797427925468

>  <compound_id>  (1341) 
30267

>  <target_id>  (1341) 
1

>  <reference_id>  (1341) 
97

>  <inspiration_ids>  (1341) 
[97, 7]

>  <energy_score>  (1341) 
139.78844296369414

>  <distance_score>  (1341) 
13.855316737024813

>  <path>  (1341) 
/opt/xchem-fragalysis-2/maxwin/BulkDock/SCRATCH/511024/C30267-P97/C30267-P97.minimised.mol

>  <scratch_subdir>  (1341) 
/opt/xchem-fragalysis-2/maxwin/BulkDock/SCRATCH/511024/C30267-P97

>  <fragmenstein_runtime>  (1341) 
14.875678539276123

>  <fragmenstein_outcome>  (1341) 
too moved

>  <fragmenstein_mode>  (1341) 
expansion

>  <fragmenstein_error>  (1341) 


$$$$
C30267-P7
     RDKit          3D

 43 45  0  0  0  0  0  0  0  0999 V2000
    7.5361    0.9401   17.2541 C   0  0  0  0  0  0  0  0  0  0  0  0
    7.4143    2.3085   16.9072 O   0  0  0  0  0  0  0  0  0  0  0  0
    6.2762    2.9891   17.4279 C   0  0  0  0  0  0  0  0  0  0  0  0
    6.1715    3.3322   18.9220 C   0  0  0  0  0  0  0  0  0  0  0  0
    6.8850    2.4612   19.8947 N   0  0  0  0  0  0  0  0  0  0  0  0
    6.5254    1.4075   21.2213 C   0  0  0  0  0  0  0  0  0  0  0  0
    4.9553    0.8132   22.3233 C   0  0  0  0  0  0  0  0  0  0  0  0
    3.9366    1.0316   21.7493 O   0  0  0  0  0  0  0  0  0  0  0  0
    4.8547    0.1544   24.0957 N   0  0  0  0  0  0  0  0  0  0  0  0
    3.6244   -0.0823   25.0668 C   0  0  0  0  0  0  0  0  0  0  0  0
    3.7966    0.0346   26.6235 C   0  0  0  0  0  0  0  0  0  0  0  0
    2.4562   -0.0389   27.4415 C   0  0  0  0  0  0  0  0  0  0  0  0
    1.5249    1.0080   27.7409 C   0  0  0  0  0  0  0  0  0  0  0  0
    0.5063    0.4262   28.4661 C   0  0  0  0  0  0  0  0  0  0  0  0
    0.8491   -0.8869   28.5779 N   0  0  0  0  0  0  0  0  0  0  0  0
    2.0433   -1.1794   28.0259 N   0  0  0  0  0  0  0  0  0  0  0  0
    8.1612    1.5161   21.3464 C   0  0  0  0  0  0  0  0  0  0  0  0
    8.9053    2.6108   20.9204 C   0  0  0  0  0  0  0  0  0  0  0  0
   10.1752    3.1341   21.2579 C   0  0  0  0  0  0  0  0  0  0  0  0
   10.8608    3.9178   20.3347 C   0  0  0  0  0  0  0  0  0  0  0  0
   10.2717    4.1900   19.1166 C   0  0  0  0  0  0  0  0  0  0  0  0
    8.9738    3.7408   18.8458 C   0  0  0  0  0  0  0  0  0  0  0  0
    8.2699    2.9299   19.7912 C   0  0  0  0  0  0  0  0  0  0  0  0
    7.7940    0.7858   18.2987 H   0  0  0  0  0  0  0  0  0  0  0  0
    6.6313    0.3821   17.0294 H   0  0  0  0  0  0  0  0  0  0  0  0
    8.3495    0.5191   16.6559 H   0  0  0  0  0  0  0  0  0  0  0  0
    5.3615    2.4840   17.1537 H   0  0  0  0  0  0  0  0  0  0  0  0
    6.2266    3.9373   16.8769 H   0  0  0  0  0  0  0  0  0  0  0  0
    6.6007    4.3375   19.0702 H   0  0  0  0  0  0  0  0  0  0  0  0
    5.1411    3.6262   19.0855 H   0  0  0  0  0  0  0  0  0  0  0  0
    5.7230   -0.0456   24.3924 H   0  0  0  0  0  0  0  0  0  0  0  0
    3.2564   -1.1043   24.9161 H   0  0  0  0  0  0  0  0  0  0  0  0
    2.9449    0.7434   24.8329 H   0  0  0  0  0  0  0  0  0  0  0  0
    4.4697   -0.7580   26.9719 H   0  0  0  0  0  0  0  0  0  0  0  0
    4.2815    0.9890   26.8611 H   0  0  0  0  0  0  0  0  0  0  0  0
    1.5965    2.0436   27.4405 H   0  0  0  0  0  0  0  0  0  0  0  0
   -0.4078    0.8165   28.8879 H   0  0  0  0  0  0  0  0  0  0  0  0
    0.3324   -1.6399   29.0189 H   0  0  0  0  0  0  0  0  0  0  0  0
    8.7759    1.0049   22.0909 H   0  0  0  0  0  0  0  0  0  0  0  0
   10.6635    2.8374   22.1829 H   0  0  0  0  0  0  0  0  0  0  0  0
   11.8572    4.2856   20.5618 H   0  0  0  0  0  0  0  0  0  0  0  0
   10.7943    4.7983   18.3826 H   0  0  0  0  0  0  0  0  0  0  0  0
    8.5357    4.0682   17.9097 H   0  0  0  0  0  0  0  0  0  0  0  0
  1  2  1  0
  2  3  1  0
  3  4  1  0
  4  5  1  0
  5  6  1  0
  6  7  1  0
  7  8  2  0
  7  9  1  0
  9 10  1  0
 10 11  1  0
 11 12  1  0
 12 13  1  0
 13 14  2  0
 14 15  1  0
 15 16  1  0
  6 17  2  0
 17 18  1  0
 18 19  2  0
 19 20  1  0
 20 21  2  0
 21 22  1  0
 22 23  2  0
 23  5  1  0
 16 12  2  0
 23 18  1  0
  1 24  1  0
  1 25  1  0
  1 26  1  0
  3 27  1  0
  3 28  1  0
  4 29  1  0
  4 30  1  0
  9 31  1  0
 10 32  1  0
 10 33  1  0
 11 34  1  0
 11 35  1  0
 13 36  1  0
 14 37  1  0
 15 38  1  0
 17 39  1  0
 19 40  1  0
 20 41  1  0
 21 42  1  0
 22 43  1  0
M  END
>  <Energy>  (1342) 
370.1553215445951

>  <compound_id>  (1342) 
30267

>  <target_id>  (1342) 
1

>  <reference_id>  (1342) 
7

>  <inspiration_ids>  (1342) 
[97, 7]

>  <energy_score>  (1342) 
339.15579022903023

>  <distance_score>  (1342) 
12.155326547747388

>  <path>  (1342) 
/opt/xchem-fragalysis-2/maxwin/BulkDock/SCRATCH/511024/C30267-P7/C30267-P7.minimised.mol

>  <scratch_subdir>  (1342) 
/opt/xchem-fragalysis-2/maxwin/BulkDock/SCRATCH/511024/C30267-P7

>  <fragmenstein_runtime>  (1342) 
15.75552225112915

>  <fragmenstein_outcome>  (1342) 
too moved

>  <fragmenstein_mode>  (1342) 
expansion

>  <fragmenstein_error>  (1342) 


$$$$
C30268-P97
     RDKit          3D

 33 35  0  0  0  0  0  0  0  0999 V2000
    5.7387   -7.4819   15.0107 O   0  0  0  0  0  0  0  0  0  0  0  0
    6.2654   -6.7012   15.7512 C   0  0  0  0  0  0  0  0  0  0  0  0
    5.7602   -6.0242   16.9033 N   0  0  0  0  0  0  0  0  0  0  0  0
    4.3982   -5.9853   17.4951 C   0  0  0  0  0  0  0  0  0  0  0  0
    3.2503   -7.0256   17.4204 C   0  0  0  0  0  0  0  0  0  0  0  0
    1.9827   -6.4597   18.1327 C   0  0  0  0  0  0  0  0  0  0  0  0
    1.3465   -6.8840   19.3327 C   0  0  0  0  0  0  0  0  0  0  0  0
    0.8261   -5.7097   19.8130 C   0  0  0  0  0  0  0  0  0  0  0  0
    0.6665   -4.9072   18.7326 N   0  0  0  0  0  0  0  0  0  0  0  0
    1.4158   -5.3195   17.7006 N   0  0  0  0  0  0  0  0  0  0  0  0
    7.9993   -6.1854   15.2441 C   0  0  0  0  0  0  0  0  0  0  0  0
    9.5420   -7.2946   15.2628 N   0  0  0  0  0  0  0  0  0  0  0  0
   11.0057   -6.1445   15.5596 C   0  0  0  0  0  0  0  0  0  0  0  0
   12.0960   -5.9929   16.4203 C   0  0  0  0  0  0  0  0  0  0  0  0
   12.8212   -4.7914   16.6961 C   0  0  0  0  0  0  0  0  0  0  0  0
   12.5204   -3.5635   16.1160 C   0  0  0  0  0  0  0  0  0  0  0  0
   11.4221   -3.4207   15.2794 C   0  0  0  0  0  0  0  0  0  0  0  0
   10.5706   -4.5338   15.0493 C   0  0  0  0  0  0  0  0  0  0  0  0
    8.8068   -4.4763   15.0119 C   0  0  0  0  0  0  0  0  0  0  0  0
    7.9571   -2.4618   14.7842 Br  0  0  0  0  0  0  0  0  0  0  0  0
    6.5051   -5.5082   17.3300 H   0  0  0  0  0  0  0  0  0  0  0  0
    3.9832   -5.0881   17.0135 H   0  0  0  0  0  0  0  0  0  0  0  0
    4.5278   -5.6476   18.5132 H   0  0  0  0  0  0  0  0  0  0  0  0
    3.5580   -7.9573   17.9064 H   0  0  0  0  0  0  0  0  0  0  0  0
    3.0042   -7.2487   16.3767 H   0  0  0  0  0  0  0  0  0  0  0  0
    1.5400   -7.7821   19.8978 H   0  0  0  0  0  0  0  0  0  0  0  0
    0.6493   -5.3361   20.8038 H   0  0  0  0  0  0  0  0  0  0  0  0
    0.2544   -3.9769   18.6900 H   0  0  0  0  0  0  0  0  0  0  0  0
    9.4670   -8.1445   15.7798 H   0  0  0  0  0  0  0  0  0  0  0  0
   12.3769   -6.9374   16.7575 H   0  0  0  0  0  0  0  0  0  0  0  0
   13.6768   -4.8292   17.3671 H   0  0  0  0  0  0  0  0  0  0  0  0
   13.1316   -2.6957   16.3510 H   0  0  0  0  0  0  0  0  0  0  0  0
   11.1208   -2.4332   14.9408 H   0  0  0  0  0  0  0  0  0  0  0  0
  1  2  2  0
  2  3  1  0
  3  4  1  0
  4  5  1  0
  5  6  1  0
  6  7  1  0
  7  8  2  0
  8  9  1  0
  9 10  1  0
  2 11  1  0
 11 12  1  0
 12 13  1  0
 13 14  2  0
 14 15  1  0
 15 16  2  0
 16 17  1  0
 17 18  2  0
 18 19  1  0
 19 20  1  0
 10  6  2  0
 19 11  2  0
 18 13  1  0
  3 21  1  0
  4 22  1  0
  4 23  1  0
  5 24  1  0
  5 25  1  0
  7 26  1  0
  8 27  1  0
  9 28  1  0
 12 29  1  0
 14 30  1  0
 15 31  1  0
 16 32  1  0
 17 33  1  0
M  END
>  <Energy>  (1343) 
392.36476659070718

>  <compound_id>  (1343) 
30268

>  <target_id>  (1343) 
1

>  <reference_id>  (1343) 
97

>  <inspiration_ids>  (1343) 
[97, 7]

>  <energy_score>  (1343) 
390.12704066407554

>  <distance_score>  (1343) 
14.956702407691745

>  <path>  (1343) 
/opt/xchem-fragalysis-2/maxwin/BulkDock/SCRATCH/511024/C30268-P97/C30268-P97.minimised.mol

>  <scratch_subdir>  (1343) 
/opt/xchem-fragalysis-2/maxwin/BulkDock/SCRATCH/511024/C30268-P97

>  <fragmenstein_runtime>  (1343) 
8.68733024597168

>  <fragmenstein_outcome>  (1343) 
too moved

>  <fragmenstein_mode>  (1343) 
expansion

>  <fragmenstein_error>  (1343) 


$$$$
C30268-P7
     RDKit          3D

 33 35  0  0  0  0  0  0  0  0999 V2000
    3.9691    1.0142   21.8552 O   0  0  0  0  0  0  0  0  0  0  0  0
    4.9248    0.7843   22.5451 C   0  0  0  0  0  0  0  0  0  0  0  0
    4.8141    0.0828   24.2413 N   0  0  0  0  0  0  0  0  0  0  0  0
    3.5887   -0.2328   25.1331 C   0  0  0  0  0  0  0  0  0  0  0  0
    3.7168   -0.2034   26.6988 C   0  0  0  0  0  0  0  0  0  0  0  0
    2.3607   -0.2611   27.4902 C   0  0  0  0  0  0  0  0  0  0  0  0
    1.4704    0.8108   27.8241 C   0  0  0  0  0  0  0  0  0  0  0  0
    0.4309    0.2469   28.5330 C   0  0  0  0  0  0  0  0  0  0  0  0
    0.7248   -1.0802   28.6080 N   0  0  0  0  0  0  0  0  0  0  0  0
    1.8972   -1.4063   28.0270 N   0  0  0  0  0  0  0  0  0  0  0  0
    6.5872    1.4430   21.6501 C   0  0  0  0  0  0  0  0  0  0  0  0
    6.8107    3.1397   21.4605 N   0  0  0  0  0  0  0  0  0  0  0  0
    8.0317    3.5647   21.0224 C   0  0  0  0  0  0  0  0  0  0  0  0
    8.6086    4.8359   21.0807 C   0  0  0  0  0  0  0  0  0  0  0  0
    9.6105    5.1407   20.1572 C   0  0  0  0  0  0  0  0  0  0  0  0
    9.9005    4.2632   19.1304 C   0  0  0  0  0  0  0  0  0  0  0  0
    9.2637    3.0249   19.0955 C   0  0  0  0  0  0  0  0  0  0  0  0
    8.4564    2.5795   20.1848 C   0  0  0  0  0  0  0  0  0  0  0  0
    7.7696    1.3506   20.5946 C   0  0  0  0  0  0  0  0  0  0  0  0
    7.8342    0.0312   19.2642 Br  0  0  0  0  0  0  0  0  0  0  0  0
    5.6834   -0.0890   24.5665 H   0  0  0  0  0  0  0  0  0  0  0  0
    2.9265    0.6106   24.9291 H   0  0  0  0  0  0  0  0  0  0  0  0
    3.2220   -1.2352   24.8932 H   0  0  0  0  0  0  0  0  0  0  0  0
    4.3519   -1.0372   27.0219 H   0  0  0  0  0  0  0  0  0  0  0  0
    4.2338    0.7179   26.9946 H   0  0  0  0  0  0  0  0  0  0  0  0
    1.5869    1.8535   27.5644 H   0  0  0  0  0  0  0  0  0  0  0  0
   -0.4627    0.6613   28.9757 H   0  0  0  0  0  0  0  0  0  0  0  0
    0.1866   -1.8216   29.0427 H   0  0  0  0  0  0  0  0  0  0  0  0
    6.0668    3.7184   21.8265 H   0  0  0  0  0  0  0  0  0  0  0  0
    8.2438    5.5943   21.7671 H   0  0  0  0  0  0  0  0  0  0  0  0
   10.0779    6.1227   20.1782 H   0  0  0  0  0  0  0  0  0  0  0  0
   10.5785    4.5551   18.3334 H   0  0  0  0  0  0  0  0  0  0  0  0
    9.4049    2.4316   18.1971 H   0  0  0  0  0  0  0  0  0  0  0  0
  1  2  2  0
  2  3  1  0
  3  4  1  0
  4  5  1  0
  5  6  1  0
  6  7  1  0
  7  8  2  0
  8  9  1  0
  9 10  1  0
  2 11  1  0
 11 12  1  0
 12 13  1  0
 13 14  2  0
 14 15  1  0
 15 16  2  0
 16 17  1  0
 17 18  2  0
 18 19  1  0
 19 20  1  0
 10  6  2  0
 19 11  2  0
 18 13  1  0
  3 21  1  0
  4 22  1  0
  4 23  1  0
  5 24  1  0
  5 25  1  0
  7 26  1  0
  8 27  1  0
  9 28  1  0
 12 29  1  0
 14 30  1  0
 15 31  1  0
 16 32  1  0
 17 33  1  0
M  END
>  <Energy>  (1344) 
259.01668477925597

>  <compound_id>  (1344) 
30268

>  <target_id>  (1344) 
1

>  <reference_id>  (1344) 
7

>  <inspiration_ids>  (1344) 
[97, 7]

>  <energy_score>  (1344) 
256.77895885261995

>  <distance_score>  (1344) 
12.305943769780766

>  <path>  (1344) 
/opt/xchem-fragalysis-2/maxwin/BulkDock/SCRATCH/511024/C30268-P7/C30268-P7.minimised.mol

>  <scratch_subdir>  (1344) 
/opt/xchem-fragalysis-2/maxwin/BulkDock/SCRATCH/511024/C30268-P7

>  <fragmenstein_runtime>  (1344) 
7.690539360046387

>  <fragmenstein_outcome>  (1344) 
too moved

>  <fragmenstein_mode>  (1344) 
expansion

>  <fragmenstein_error>  (1344) 


$$$$
C30269-P97
     RDKit          3D

 33 35  0  0  0  0  0  0  0  0999 V2000
    3.7176    1.0087   24.2930 O   0  0  0  0  0  0  0  0  0  0  0  0
    4.3790    0.3018   23.5578 C   0  0  0  0  0  0  0  0  0  0  0  0
    4.5438   -1.3375   23.9260 N   0  0  0  0  0  0  0  0  0  0  0  0
    3.9360   -2.1718   24.9726 C   0  0  0  0  0  0  0  0  0  0  0  0
    3.7598   -1.5112   26.4204 C   0  0  0  0  0  0  0  0  0  0  0  0
    2.3798   -1.5190   27.1957 C   0  0  0  0  0  0  0  0  0  0  0  0
    1.6873   -2.5909   27.8430 C   0  0  0  0  0  0  0  0  0  0  0  0
    0.5807   -2.0502   28.4616 C   0  0  0  0  0  0  0  0  0  0  0  0
    0.6534   -0.7206   28.2016 N   0  0  0  0  0  0  0  0  0  0  0  0
    1.7494   -0.3636   27.5061 N   0  0  0  0  0  0  0  0  0  0  0  0
    5.2572    0.8861   21.7024 C   0  0  0  0  0  0  0  0  0  0  0  0
    6.9230    1.6399   21.2842 C   0  0  0  0  0  0  0  0  0  0  0  0
    7.9589    1.2697   20.3533 C   0  0  0  0  0  0  0  0  0  0  0  0
    8.8094    2.1158   19.6006 C   0  0  0  0  0  0  0  0  0  0  0  0
    9.7332    3.5496   20.4205 Br  0  0  0  0  0  0  0  0  0  0  0  0
    8.8080    2.0054   18.2070 C   0  0  0  0  0  0  0  0  0  0  0  0
    7.9834    1.0733   17.5964 C   0  0  0  0  0  0  0  0  0  0  0  0
    7.1417    0.2611   18.3692 C   0  0  0  0  0  0  0  0  0  0  0  0
    7.2382    0.2846   19.7777 C   0  0  0  0  0  0  0  0  0  0  0  0
    6.4534   -0.2330   20.9199 N   0  0  0  0  0  0  0  0  0  0  0  0
    5.1826   -1.7349   23.2640 H   0  0  0  0  0  0  0  0  0  0  0  0
    2.9313   -2.1394   24.5913 H   0  0  0  0  0  0  0  0  0  0  0  0
    4.1179   -3.2238   24.9220 H   0  0  0  0  0  0  0  0  0  0  0  0
    4.4851   -1.9733   27.1001 H   0  0  0  0  0  0  0  0  0  0  0  0
    4.0674   -0.4601   26.3568 H   0  0  0  0  0  0  0  0  0  0  0  0
    1.9580   -3.6292   27.8479 H   0  0  0  0  0  0  0  0  0  0  0  0
   -0.2253   -2.4842   29.0334 H   0  0  0  0  0  0  0  0  0  0  0  0
    0.0126    0.0122   28.4828 H   0  0  0  0  0  0  0  0  0  0  0  0
    6.8234    2.7611   21.2426 H   0  0  0  0  0  0  0  0  0  0  0  0
    9.4122    2.6745   17.5991 H   0  0  0  0  0  0  0  0  0  0  0  0
    7.9428    1.0255   16.5122 H   0  0  0  0  0  0  0  0  0  0  0  0
    6.3462   -0.2926   17.8753 H   0  0  0  0  0  0  0  0  0  0  0  0
    6.0398   -1.1457   20.8582 H   0  0  0  0  0  0  0  0  0  0  0  0
  1  2  2  0
  2  3  1  0
  3  4  1  0
  4  5  1  0
  5  6  1  0
  6  7  1  0
  7  8  2  0
  8  9  1  0
  9 10  1  0
  2 11  1  0
 11 12  2  0
 12 13  1  0
 13 14  2  0
 14 15  1  0
 14 16  1  0
 16 17  2  0
 17 18  1  0
 18 19  2  0
 19 20  1  0
 10  6  2  0
 20 11  1  0
 19 13  1  0
  3 21  1  0
  4 22  1  0
  4 23  1  0
  5 24  1  0
  5 25  1  0
  7 26  1  0
  8 27  1  0
  9 28  1  0
 12 29  1  0
 16 30  1  0
 17 31  1  0
 18 32  1  0
 20 33  1  0
M  END
>  <Energy>  (1345) 
421.79325860906039

>  <compound_id>  (1345) 
30269

>  <target_id>  (1345) 
1

>  <reference_id>  (1345) 
97

>  <inspiration_ids>  (1345) 
[97, 7]

>  <energy_score>  (1345) 
397.53298922197393

>  <distance_score>  (1345) 
12.177450053250592

>  <path>  (1345) 
/opt/xchem-fragalysis-2/maxwin/BulkDock/SCRATCH/511024/C30269-P97/C30269-P97.minimised.mol

>  <scratch_subdir>  (1345) 
/opt/xchem-fragalysis-2/maxwin/BulkDock/SCRATCH/511024/C30269-P97

>  <fragmenstein_runtime>  (1345) 
7.824754953384399

>  <fragmenstein_outcome>  (1345) 
too moved

>  <fragmenstein_mode>  (1345) 
expansion

>  <fragmenstein_error>  (1345) 


$$$$
C30269-P7
     RDKit          3D

 33 35  0  0  0  0  0  0  0  0999 V2000
    4.7343   -2.1731   22.9404 O   0  0  0  0  0  0  0  0  0  0  0  0
    4.8234   -1.0234   23.0703 C   0  0  0  0  0  0  0  0  0  0  0  0
    4.5385   -0.1920   24.4150 N   0  0  0  0  0  0  0  0  0  0  0  0
    4.0103   -0.6349   25.7535 C   0  0  0  0  0  0  0  0  0  0  0  0
    3.2523    0.4325   26.6151 C   0  0  0  0  0  0  0  0  0  0  0  0
    2.0516    0.0199   27.5247 C   0  0  0  0  0  0  0  0  0  0  0  0
    0.9106    0.8285   27.8617 C   0  0  0  0  0  0  0  0  0  0  0  0
    0.1087    0.0536   28.6690 C   0  0  0  0  0  0  0  0  0  0  0  0
    0.7697   -1.1303   28.7942 N   0  0  0  0  0  0  0  0  0  0  0  0
    1.9621   -1.1594   28.1600 N   0  0  0  0  0  0  0  0  0  0  0  0
    5.5648    0.1088   21.5139 C   0  0  0  0  0  0  0  0  0  0  0  0
    6.8232    1.4139   21.4349 C   0  0  0  0  0  0  0  0  0  0  0  0
    7.9969    1.3881   20.3650 C   0  0  0  0  0  0  0  0  0  0  0  0
    8.6143    2.5375   19.7713 C   0  0  0  0  0  0  0  0  0  0  0  0
    9.1555    4.0145   20.8254 Br  0  0  0  0  0  0  0  0  0  0  0  0
    8.7017    2.6333   18.3737 C   0  0  0  0  0  0  0  0  0  0  0  0
    8.1687    1.6231   17.5797 C   0  0  0  0  0  0  0  0  0  0  0  0
    7.5806    0.4903   18.1661 C   0  0  0  0  0  0  0  0  0  0  0  0
    7.5986    0.3164   19.5798 C   0  0  0  0  0  0  0  0  0  0  0  0
    6.8946   -0.5574   20.4923 N   0  0  0  0  0  0  0  0  0  0  0  0
    4.6134    0.7872   24.2138 H   0  0  0  0  0  0  0  0  0  0  0  0
    3.3662   -1.4961   25.5531 H   0  0  0  0  0  0  0  0  0  0  0  0
    4.8745   -1.0103   26.3116 H   0  0  0  0  0  0  0  0  0  0  0  0
    2.8832    1.2172   25.9417 H   0  0  0  0  0  0  0  0  0  0  0  0
    3.9872    0.9258   27.2648 H   0  0  0  0  0  0  0  0  0  0  0  0
    0.7147    1.8390   27.5328 H   0  0  0  0  0  0  0  0  0  0  0  0
   -0.8446    0.2305   29.1443 H   0  0  0  0  0  0  0  0  0  0  0  0
    0.4830   -1.9596   29.3019 H   0  0  0  0  0  0  0  0  0  0  0  0
    6.6540    2.5073   21.5340 H   0  0  0  0  0  0  0  0  0  0  0  0
    9.1286    3.5178   17.9073 H   0  0  0  0  0  0  0  0  0  0  0  0
    8.1461    1.7474   16.4990 H   0  0  0  0  0  0  0  0  0  0  0  0
    6.9269   -0.0998   17.5312 H   0  0  0  0  0  0  0  0  0  0  0  0
    6.5708   -1.4686   20.2107 H   0  0  0  0  0  0  0  0  0  0  0  0
  1  2  2  0
  2  3  1  0
  3  4  1  0
  4  5  1  0
  5  6  1  0
  6  7  1  0
  7  8  2  0
  8  9  1  0
  9 10  1  0
  2 11  1  0
 11 12  2  0
 12 13  1  0
 13 14  2  0
 14 15  1  0
 14 16  1  0
 16 17  2  0
 17 18  1  0
 18 19  2  0
 19 20  1  0
 10  6  2  0
 20 11  1  0
 19 13  1  0
  3 21  1  0
  4 22  1  0
  4 23  1  0
  5 24  1  0
  5 25  1  0
  7 26  1  0
  8 27  1  0
  9 28  1  0
 12 29  1  0
 16 30  1  0
 17 31  1  0
 18 32  1  0
 20 33  1  0
M  END
>  <Energy>  (1346) 
318.20231557395135

>  <compound_id>  (1346) 
30269

>  <target_id>  (1346) 
1

>  <reference_id>  (1346) 
7

>  <inspiration_ids>  (1346) 
[97, 7]

>  <energy_score>  (1346) 
293.9420461868591

>  <distance_score>  (1346) 
11.87836685545286

>  <path>  (1346) 
/opt/xchem-fragalysis-2/maxwin/BulkDock/SCRATCH/511024/C30269-P7/C30269-P7.minimised.mol

>  <scratch_subdir>  (1346) 
/opt/xchem-fragalysis-2/maxwin/BulkDock/SCRATCH/511024/C30269-P7

>  <fragmenstein_runtime>  (1346) 
7.171053171157837

>  <fragmenstein_outcome>  (1346) 
too moved

>  <fragmenstein_mode>  (1346) 
expansion

>  <fragmenstein_error>  (1346) 


$$$$
C30270-P97
     RDKit          3D

 46 48  0  0  0  0  0  0  0  0999 V2000
    9.7566   -7.5104   15.4908 C   0  0  0  0  0  0  0  0  0  0  0  0
   11.2859   -6.3384   15.9385 C   0  0  0  0  0  0  0  0  0  0  0  0
   11.6005   -4.6042   15.9916 C   0  0  0  0  0  0  0  0  0  0  0  0
   11.0631   -3.5490   14.9896 C   0  0  0  0  0  0  0  0  0  0  0  0
   11.7432   -2.2987   15.2204 O   0  0  0  0  0  0  0  0  0  0  0  0
   11.1154   -1.0941   15.4062 C   0  0  0  0  0  0  0  0  0  0  0  0
   12.0090   -0.0259   15.5241 C   0  0  0  0  0  0  0  0  0  0  0  0
   11.5787    1.2831   15.8143 C   0  0  0  0  0  0  0  0  0  0  0  0
   10.2175    1.5227   16.0902 C   0  0  0  0  0  0  0  0  0  0  0  0
    9.4500    2.6621   16.4886 C   0  0  0  0  0  0  0  0  0  0  0  0
    8.1212    2.2966   16.7447 C   0  0  0  0  0  0  0  0  0  0  0  0
    7.0084    3.2391   17.1716 C   0  0  0  0  0  0  0  0  0  0  0  0
    7.0651    4.3080   16.6383 O   0  0  0  0  0  0  0  0  0  0  0  0
    6.0761    2.7260   18.1734 N   0  0  0  0  0  0  0  0  0  0  0  0
    4.8309    3.3444   18.7794 C   0  0  0  0  0  0  0  0  0  0  0  0
    4.6578    3.3114   20.3405 C   0  0  0  0  0  0  0  0  0  0  0  0
    3.2578    3.6159   20.9667 C   0  0  0  0  0  0  0  0  0  0  0  0
    2.9183    4.3586   22.1520 C   0  0  0  0  0  0  0  0  0  0  0  0
    1.5739    4.1497   22.3781 C   0  0  0  0  0  0  0  0  0  0  0  0
    1.1651    3.3825   21.3345 N   0  0  0  0  0  0  0  0  0  0  0  0
    2.1444    3.0782   20.4613 N   0  0  0  0  0  0  0  0  0  0  0  0
    8.0992    0.9354   16.4248 N   0  0  0  0  0  0  0  0  0  0  0  0
    9.3321    0.4605   15.9827 C   0  0  0  0  0  0  0  0  0  0  0  0
    9.7440   -0.8321   15.5467 C   0  0  0  0  0  0  0  0  0  0  0  0
    9.7943   -8.6304   15.7717 H   0  0  0  0  0  0  0  0  0  0  0  0
    8.7683   -7.0607   15.0923 H   0  0  0  0  0  0  0  0  0  0  0  0
    9.7175   -7.8722   14.5889 H   0  0  0  0  0  0  0  0  0  0  0  0
   11.0428   -6.1697   16.9232 H   0  0  0  0  0  0  0  0  0  0  0  0
   12.2092   -6.9005   16.0632 H   0  0  0  0  0  0  0  0  0  0  0  0
   11.3743   -4.2602   16.9940 H   0  0  0  0  0  0  0  0  0  0  0  0
   12.6995   -4.5162   16.0194 H   0  0  0  0  0  0  0  0  0  0  0  0
   11.3065   -3.8298   13.9625 H   0  0  0  0  0  0  0  0  0  0  0  0
    9.9900   -3.4424   15.0537 H   0  0  0  0  0  0  0  0  0  0  0  0
   13.0730   -0.2083   15.3846 H   0  0  0  0  0  0  0  0  0  0  0  0
   12.3045    2.0882   15.8821 H   0  0  0  0  0  0  0  0  0  0  0  0
    9.8338    3.6678   16.6153 H   0  0  0  0  0  0  0  0  0  0  0  0
    6.2749    1.7443   18.3402 H   0  0  0  0  0  0  0  0  0  0  0  0
    3.9889    2.8512   18.2851 H   0  0  0  0  0  0  0  0  0  0  0  0
    4.8113    4.3886   18.4463 H   0  0  0  0  0  0  0  0  0  0  0  0
    5.3809    4.0119   20.7771 H   0  0  0  0  0  0  0  0  0  0  0  0
    4.9511    2.3150   20.6908 H   0  0  0  0  0  0  0  0  0  0  0  0
    3.5898    4.9271   22.7797 H   0  0  0  0  0  0  0  0  0  0  0  0
    0.9018    4.4802   23.1554 H   0  0  0  0  0  0  0  0  0  0  0  0
    0.2442    3.0118   21.1307 H   0  0  0  0  0  0  0  0  0  0  0  0
    7.2998    0.3286   16.5386 H   0  0  0  0  0  0  0  0  0  0  0  0
    8.9946   -1.5911   15.3723 H   0  0  0  0  0  0  0  0  0  0  0  0
  1  2  1  0
  2  3  1  0
  3  4  1  0
  4  5  1  0
  5  6  1  0
  6  7  2  0
  7  8  1  0
  8  9  2  0
  9 10  1  0
 10 11  2  0
 11 12  1  0
 12 13  2  0
 12 14  1  0
 14 15  1  0
 15 16  1  0
 16 17  1  0
 17 18  1  0
 18 19  2  0
 19 20  1  0
 20 21  1  0
 11 22  1  0
 22 23  1  0
 23 24  2  0
 24  6  1  0
 23  9  1  0
 21 17  2  0
  1 25  1  0
  1 26  1  0
  1 27  1  0
  2 28  1  0
  2 29  1  0
  3 30  1  0
  3 31  1  0
  4 32  1  0
  4 33  1  0
  7 34  1  0
  8 35  1  0
 10 36  1  0
 14 37  1  0
 15 38  1  0
 15 39  1  0
 16 40  1  0
 16 41  1  0
 18 42  1  0
 19 43  1  0
 20 44  1  0
 22 45  1  0
 24 46  1  0
M  END
>  <Energy>  (1347) 
165.63008911092044

>  <compound_id>  (1347) 
30270

>  <target_id>  (1347) 
1

>  <reference_id>  (1347) 
97

>  <inspiration_ids>  (1347) 
[97, 7]

>  <energy_score>  (1347) 
136.22763700413128

>  <distance_score>  (1347) 
13.92484137296438

>  <path>  (1347) 
/opt/xchem-fragalysis-2/maxwin/BulkDock/SCRATCH/511024/C30270-P97/C30270-P97.minimised.mol

>  <scratch_subdir>  (1347) 
/opt/xchem-fragalysis-2/maxwin/BulkDock/SCRATCH/511024/C30270-P97

>  <fragmenstein_runtime>  (1347) 
32.26167392730713

>  <fragmenstein_outcome>  (1347) 
too moved

>  <fragmenstein_mode>  (1347) 
expansion

>  <fragmenstein_error>  (1347) 


$$$$
C30270-P7
     RDKit          3D

 46 48  0  0  0  0  0  0  0  0999 V2000
    8.1250   -6.5851   15.1346 C   0  0  0  0  0  0  0  0  0  0  0  0
    9.7623   -7.3570   15.4149 C   0  0  0  0  0  0  0  0  0  0  0  0
   11.5373   -6.5662   15.8993 C   0  0  0  0  0  0  0  0  0  0  0  0
   12.8322   -5.2837   16.4419 C   0  0  0  0  0  0  0  0  0  0  0  0
   13.5123   -5.3937   18.0400 O   0  0  0  0  0  0  0  0  0  0  0  0
   12.8860   -4.5503   19.1093 C   0  0  0  0  0  0  0  0  0  0  0  0
   12.2892   -3.7994   18.2398 C   0  0  0  0  0  0  0  0  0  0  0  0
   11.1762   -4.6689   17.9831 C   0  0  0  0  0  0  0  0  0  0  0  0
    9.9985   -5.3112   19.2536 C   0  0  0  0  0  0  0  0  0  0  0  0
    8.9135   -3.9160   20.1451 C   0  0  0  0  0  0  0  0  0  0  0  0
    7.6529   -3.4877   21.2539 C   0  0  0  0  0  0  0  0  0  0  0  0
    5.8261   -2.8918   21.4568 C   0  0  0  0  0  0  0  0  0  0  0  0
    5.1749   -3.0669   20.4750 O   0  0  0  0  0  0  0  0  0  0  0  0
    5.3183   -2.2648   23.1895 N   0  0  0  0  0  0  0  0  0  0  0  0
    4.0122   -1.9501   23.7679 C   0  0  0  0  0  0  0  0  0  0  0  0
    3.8944   -2.2438   25.4061 C   0  0  0  0  0  0  0  0  0  0  0  0
    2.8817   -1.6323   26.4615 C   0  0  0  0  0  0  0  0  0  0  0  0
    2.0532   -2.3537   27.4042 C   0  0  0  0  0  0  0  0  0  0  0  0
    1.4112   -1.4223   28.1855 C   0  0  0  0  0  0  0  0  0  0  0  0
    1.9115   -0.2311   27.7703 N   0  0  0  0  0  0  0  0  0  0  0  0
    2.8274   -0.3241   26.7810 N   0  0  0  0  0  0  0  0  0  0  0  0
    8.5166   -4.6545   20.1933 N   0  0  0  0  0  0  0  0  0  0  0  0
   10.3139   -5.3017   20.5059 C   0  0  0  0  0  0  0  0  0  0  0  0
   12.0005   -5.1158   20.3047 C   0  0  0  0  0  0  0  0  0  0  0  0
    7.3795   -7.3596   14.7299 H   0  0  0  0  0  0  0  0  0  0  0  0
    7.4536   -6.1689   15.9309 H   0  0  0  0  0  0  0  0  0  0  0  0
    8.4879   -5.7594   14.5597 H   0  0  0  0  0  0  0  0  0  0  0  0
    9.6768   -7.6626   14.4870 H   0  0  0  0  0  0  0  0  0  0  0  0
    9.7253   -8.5016   15.6172 H   0  0  0  0  0  0  0  0  0  0  0  0
   11.0212   -6.0866   16.6077 H   0  0  0  0  0  0  0  0  0  0  0  0
   12.1891   -7.4098   16.1120 H   0  0  0  0  0  0  0  0  0  0  0  0
   13.7877   -5.4100   15.9465 H   0  0  0  0  0  0  0  0  0  0  0  0
   12.5823   -4.2697   16.0891 H   0  0  0  0  0  0  0  0  0  0  0  0
   12.7466   -3.0954   17.5689 H   0  0  0  0  0  0  0  0  0  0  0  0
   10.7280   -4.3347   17.0381 H   0  0  0  0  0  0  0  0  0  0  0  0
    9.7155   -3.3205   20.7110 H   0  0  0  0  0  0  0  0  0  0  0  0
    6.0652   -2.3026   23.8335 H   0  0  0  0  0  0  0  0  0  0  0  0
    3.1414   -2.4369   23.3613 H   0  0  0  0  0  0  0  0  0  0  0  0
    4.3374   -0.9552   24.0746 H   0  0  0  0  0  0  0  0  0  0  0  0
    3.7940   -3.3156   25.4653 H   0  0  0  0  0  0  0  0  0  0  0  0
    4.8649   -1.9468   25.8240 H   0  0  0  0  0  0  0  0  0  0  0  0
    1.9297   -3.4210   27.4663 H   0  0  0  0  0  0  0  0  0  0  0  0
    0.6898   -1.5037   28.9838 H   0  0  0  0  0  0  0  0  0  0  0  0
    1.7041    0.6935   28.1290 H   0  0  0  0  0  0  0  0  0  0  0  0
    7.7985   -5.4115   20.2381 H   0  0  0  0  0  0  0  0  0  0  0  0
   12.5607   -5.6856   21.0524 H   0  0  0  0  0  0  0  0  0  0  0  0
  1  2  1  0
  2  3  1  0
  3  4  1  0
  4  5  1  0
  5  6  1  0
  6  7  2  0
  7  8  1  0
  8  9  2  0
  9 10  1  0
 10 11  2  0
 11 12  1  0
 12 13  2  0
 12 14  1  0
 14 15  1  0
 15 16  1  0
 16 17  1  0
 17 18  1  0
 18 19  2  0
 19 20  1  0
 20 21  1  0
 11 22  1  0
 22 23  1  0
 23 24  2  0
 24  6  1  0
 23  9  1  0
 21 17  2  0
  1 25  1  0
  1 26  1  0
  1 27  1  0
  2 28  1  0
  2 29  1  0
  3 30  1  0
  3 31  1  0
  4 32  1  0
  4 33  1  0
  7 34  1  0
  8 35  1  0
 10 36  1  0
 14 37  1  0
 15 38  1  0
 15 39  1  0
 16 40  1  0
 16 41  1  0
 18 42  1  0
 19 43  1  0
 20 44  1  0
 22 45  1  0
 24 46  1  0
M  END
>  <Energy>  (1348) 
1275.0720626311884

>  <compound_id>  (1348) 
30270

>  <target_id>  (1348) 
1

>  <reference_id>  (1348) 
7

>  <inspiration_ids>  (1348) 
[97, 7]

>  <energy_score>  (1348) 
1245.6696105243918

>  <distance_score>  (1348) 
11.893585152486128

>  <path>  (1348) 
/opt/xchem-fragalysis-2/maxwin/BulkDock/SCRATCH/511024/C30270-P7/C30270-P7.minimised.mol

>  <scratch_subdir>  (1348) 
/opt/xchem-fragalysis-2/maxwin/BulkDock/SCRATCH/511024/C30270-P7

>  <fragmenstein_runtime>  (1348) 
15.171814918518066

>  <fragmenstein_outcome>  (1348) 
too moved

>  <fragmenstein_mode>  (1348) 
expansion

>  <fragmenstein_error>  (1348) 


$$$$
C30271-P97
     RDKit          3D

 33 35  0  0  0  0  0  0  0  0999 V2000
    4.6935   -0.8273   23.9862 O   0  0  0  0  0  0  0  0  0  0  0  0
    4.3395    0.2999   23.6443 C   0  0  0  0  0  0  0  0  0  0  0  0
    3.2802    1.3047   24.6262 N   0  0  0  0  0  0  0  0  0  0  0  0
    2.7123    1.0988   26.0068 C   0  0  0  0  0  0  0  0  0  0  0  0
    1.4880    1.9872   26.4171 C   0  0  0  0  0  0  0  0  0  0  0  0
    0.4376    1.4255   27.4055 C   0  0  0  0  0  0  0  0  0  0  0  0
    0.5975    0.9316   28.7319 C   0  0  0  0  0  0  0  0  0  0  0  0
   -0.6717    0.6577   29.1962 C   0  0  0  0  0  0  0  0  0  0  0  0
   -1.5119    0.9831   28.1771 N   0  0  0  0  0  0  0  0  0  0  0  0
   -0.8735    1.4660   27.0904 N   0  0  0  0  0  0  0  0  0  0  0  0
    4.9142    0.9491   21.7397 C   0  0  0  0  0  0  0  0  0  0  0  0
    6.1687    2.0714   21.1263 C   0  0  0  0  0  0  0  0  0  0  0  0
    7.1875    1.9511   20.1665 C   0  0  0  0  0  0  0  0  0  0  0  0
    8.1347    2.7581   19.5140 C   0  0  0  0  0  0  0  0  0  0  0  0
    8.6002    2.3248   18.2699 C   0  0  0  0  0  0  0  0  0  0  0  0
    8.0566    1.1813   17.7091 C   0  0  0  0  0  0  0  0  0  0  0  0
    8.4035    0.8276   16.4662 F   0  0  0  0  0  0  0  0  0  0  0  0
    7.1410    0.4000   18.4116 C   0  0  0  0  0  0  0  0  0  0  0  0
    6.8177    0.7588   19.7216 C   0  0  0  0  0  0  0  0  0  0  0  0
    6.1748    0.1816   20.8426 N   0  0  0  0  0  0  0  0  0  0  0  0
    3.0596    2.1460   24.1047 H   0  0  0  0  0  0  0  0  0  0  0  0
    2.5651    0.0253   26.1677 H   0  0  0  0  0  0  0  0  0  0  0  0
    3.5418    1.3546   26.6786 H   0  0  0  0  0  0  0  0  0  0  0  0
    1.8773    2.9151   26.8573 H   0  0  0  0  0  0  0  0  0  0  0  0
    0.9594    2.3028   25.5079 H   0  0  0  0  0  0  0  0  0  0  0  0
    1.5237    0.8022   29.2744 H   0  0  0  0  0  0  0  0  0  0  0  0
   -1.0360    0.2671   30.1348 H   0  0  0  0  0  0  0  0  0  0  0  0
   -2.5235    0.9173   28.1498 H   0  0  0  0  0  0  0  0  0  0  0  0
    6.1130    3.1240   21.4657 H   0  0  0  0  0  0  0  0  0  0  0  0
    8.4133    3.7307   19.9047 H   0  0  0  0  0  0  0  0  0  0  0  0
    9.3036    2.9245   17.7019 H   0  0  0  0  0  0  0  0  0  0  0  0
    6.5436   -0.3386   17.9002 H   0  0  0  0  0  0  0  0  0  0  0  0
    6.0538   -0.8170   20.8763 H   0  0  0  0  0  0  0  0  0  0  0  0
  1  2  2  0
  2  3  1  0
  3  4  1  0
  4  5  1  0
  5  6  1  0
  6  7  1  0
  7  8  2  0
  8  9  1  0
  9 10  1  0
  2 11  1  0
 11 12  2  0
 12 13  1  0
 13 14  2  0
 14 15  1  0
 15 16  2  0
 16 17  1  0
 16 18  1  0
 18 19  2  0
 19 20  1  0
 10  6  2  0
 20 11  1  0
 19 13  1  0
  3 21  1  0
  4 22  1  0
  4 23  1  0
  5 24  1  0
  5 25  1  0
  7 26  1  0
  8 27  1  0
  9 28  1  0
 12 29  1  0
 14 30  1  0
 15 31  1  0
 18 32  1  0
 20 33  1  0
M  END
>  <Energy>  (1349) 
334.42428241335432

>  <compound_id>  (1349) 
30271

>  <target_id>  (1349) 
1

>  <reference_id>  (1349) 
97

>  <inspiration_ids>  (1349) 
[97, 7]

>  <energy_score>  (1349) 
327.5252608937004

>  <distance_score>  (1349) 
11.566668830419381

>  <path>  (1349) 
/opt/xchem-fragalysis-2/maxwin/BulkDock/SCRATCH/511024/C30271-P97/C30271-P97.minimised.mol

>  <scratch_subdir>  (1349) 
/opt/xchem-fragalysis-2/maxwin/BulkDock/SCRATCH/511024/C30271-P97

>  <fragmenstein_runtime>  (1349) 
9.075947999954224

>  <fragmenstein_outcome>  (1349) 
too moved

>  <fragmenstein_mode>  (1349) 
expansion

>  <fragmenstein_error>  (1349) 


$$$$
C30271-P7
     RDKit          3D

 33 35  0  0  0  0  0  0  0  0999 V2000
    5.1241    2.3916   18.6590 O   0  0  0  0  0  0  0  0  0  0  0  0
    5.9457    1.6448   19.1312 C   0  0  0  0  0  0  0  0  0  0  0  0
    5.9466    0.8924   20.4189 N   0  0  0  0  0  0  0  0  0  0  0  0
    4.6608    0.7181   21.7102 C   0  0  0  0  0  0  0  0  0  0  0  0
    3.1200    1.8035   22.1878 C   0  0  0  0  0  0  0  0  0  0  0  0
    2.6781    2.2279   23.7599 C   0  0  0  0  0  0  0  0  0  0  0  0
    2.9151    1.6468   25.0545 C   0  0  0  0  0  0  0  0  0  0  0  0
    2.1116    2.3110   25.9585 C   0  0  0  0  0  0  0  0  0  0  0  0
    1.4341    3.2258   25.2222 N   0  0  0  0  0  0  0  0  0  0  0  0
    1.7444    3.2028   23.9109 N   0  0  0  0  0  0  0  0  0  0  0  0
    7.1449    1.4609   18.3080 C   0  0  0  0  0  0  0  0  0  0  0  0
    8.1993    2.3361   18.0801 C   0  0  0  0  0  0  0  0  0  0  0  0
    9.0506    1.7858   17.0718 C   0  0  0  0  0  0  0  0  0  0  0  0
   10.3079    2.1476   16.5394 C   0  0  0  0  0  0  0  0  0  0  0  0
   10.9605    1.2692   15.6679 C   0  0  0  0  0  0  0  0  0  0  0  0
   10.3447    0.0905   15.2748 C   0  0  0  0  0  0  0  0  0  0  0  0
   11.0203   -0.7455   14.4777 F   0  0  0  0  0  0  0  0  0  0  0  0
    9.0608   -0.2493   15.7059 C   0  0  0  0  0  0  0  0  0  0  0  0
    8.4527    0.6016   16.6462 C   0  0  0  0  0  0  0  0  0  0  0  0
    7.2469    0.5092   17.3179 N   0  0  0  0  0  0  0  0  0  0  0  0
    6.7522    0.3009   20.4528 H   0  0  0  0  0  0  0  0  0  0  0  0
    5.3221    1.0238   22.4384 H   0  0  0  0  0  0  0  0  0  0  0  0
    4.6086   -0.3309   21.9177 H   0  0  0  0  0  0  0  0  0  0  0  0
    3.0383    2.8220   21.7531 H   0  0  0  0  0  0  0  0  0  0  0  0
    2.2929    1.4205   21.6049 H   0  0  0  0  0  0  0  0  0  0  0  0
    3.5451    0.7929   25.2714 H   0  0  0  0  0  0  0  0  0  0  0  0
    1.9600    2.1933   27.0215 H   0  0  0  0  0  0  0  0  0  0  0  0
    0.7548    3.9099   25.5384 H   0  0  0  0  0  0  0  0  0  0  0  0
    8.3554    3.2631   18.6173 H   0  0  0  0  0  0  0  0  0  0  0  0
   10.7960    3.0650   16.8561 H   0  0  0  0  0  0  0  0  0  0  0  0
   11.9512    1.5028   15.2902 H   0  0  0  0  0  0  0  0  0  0  0  0
    8.5823   -1.1495   15.3334 H   0  0  0  0  0  0  0  0  0  0  0  0
    6.5203   -0.1730   17.1370 H   0  0  0  0  0  0  0  0  0  0  0  0
  1  2  2  0
  2  3  1  0
  3  4  1  0
  4  5  1  0
  5  6  1  0
  6  7  1  0
  7  8  2  0
  8  9  1  0
  9 10  1  0
  2 11  1  0
 11 12  2  0
 12 13  1  0
 13 14  2  0
 14 15  1  0
 15 16  2  0
 16 17  1  0
 16 18  1  0
 18 19  2  0
 19 20  1  0
 10  6  2  0
 20 11  1  0
 19 13  1  0
  3 21  1  0
  4 22  1  0
  4 23  1  0
  5 24  1  0
  5 25  1  0
  7 26  1  0
  8 27  1  0
  9 28  1  0
 12 29  1  0
 14 30  1  0
 15 31  1  0
 18 32  1  0
 20 33  1  0
M  END
>  <Energy>  (1350) 
126.85171943566016

>  <compound_id>  (1350) 
30271

>  <target_id>  (1350) 
1

>  <reference_id>  (1350) 
7

>  <inspiration_ids>  (1350) 
[97, 7]

>  <energy_score>  (1350) 
119.95269791600845

>  <distance_score>  (1350) 
12.857062659980341

>  <path>  (1350) 
/opt/xchem-fragalysis-2/maxwin/BulkDock/SCRATCH/511024/C30271-P7/C30271-P7.minimised.mol

>  <scratch_subdir>  (1350) 
/opt/xchem-fragalysis-2/maxwin/BulkDock/SCRATCH/511024/C30271-P7

>  <fragmenstein_runtime>  (1350) 
10.63304615020752

>  <fragmenstein_outcome>  (1350) 
too moved

>  <fragmenstein_mode>  (1350) 
expansion

>  <fragmenstein_error>  (1350) 


$$$$
C30272-P97
     RDKit          3D

 36 38  0  0  0  0  0  0  0  0999 V2000
    0.2584   -5.6072   23.6538 O   0  0  0  0  0  0  0  0  0  0  0  0
    0.5483   -5.9808   22.5768 C   0  0  0  0  0  0  0  0  0  0  0  0
    0.5782   -7.3401   22.0273 N   0  0  0  0  0  0  0  0  0  0  0  0
    0.3531   -8.6532   22.6798 C   0  0  0  0  0  0  0  0  0  0  0  0
   -0.8825   -8.8250   23.6253 C   0  0  0  0  0  0  0  0  0  0  0  0
   -0.9512   -8.4621   25.1506 C   0  0  0  0  0  0  0  0  0  0  0  0
   -1.1216   -7.1978   25.8015 C   0  0  0  0  0  0  0  0  0  0  0  0
   -1.4276   -7.4433   27.1200 C   0  0  0  0  0  0  0  0  0  0  0  0
   -1.4321   -8.7959   27.2236 N   0  0  0  0  0  0  0  0  0  0  0  0
   -1.1575   -9.4328   26.0687 N   0  0  0  0  0  0  0  0  0  0  0  0
    0.9892   -4.6768   21.6257 C   0  0  0  0  0  0  0  0  0  0  0  0
    1.0278   -3.1912   22.2986 C   0  0  0  0  0  0  0  0  0  0  0  0
    2.6419   -2.8082   23.0425 C   0  0  0  0  0  0  0  0  0  0  0  0
    3.6037   -2.1198   23.8693 C   0  0  0  0  0  0  0  0  0  0  0  0
    5.0431   -1.8524   23.2996 C   0  0  0  0  0  0  0  0  0  0  0  0
    5.7245   -2.0886   21.8958 C   0  0  0  0  0  0  0  0  0  0  0  0
    6.6794   -0.9312   21.0144 C   0  0  0  0  0  0  0  0  0  0  0  0
    7.9768   -0.7519   21.3757 F   0  0  0  0  0  0  0  0  0  0  0  0
    7.0082   -1.1218   19.7246 F   0  0  0  0  0  0  0  0  0  0  0  0
    6.2246    0.3896   20.9336 F   0  0  0  0  0  0  0  0  0  0  0  0
    4.9050   -3.0570   21.1734 C   0  0  0  0  0  0  0  0  0  0  0  0
    3.2080   -3.5092   22.0071 C   0  0  0  0  0  0  0  0  0  0  0  0
    1.9696   -4.1006   22.2834 N   0  0  0  0  0  0  0  0  0  0  0  0
    0.9575   -7.3096   21.0857 H   0  0  0  0  0  0  0  0  0  0  0  0
    1.2655   -8.8918   23.2357 H   0  0  0  0  0  0  0  0  0  0  0  0
    0.2635   -9.3669   21.8535 H   0  0  0  0  0  0  0  0  0  0  0  0
   -1.1104   -9.9016   23.5974 H   0  0  0  0  0  0  0  0  0  0  0  0
   -1.7152   -8.3510   23.1075 H   0  0  0  0  0  0  0  0  0  0  0  0
   -1.0725   -6.2392   25.3300 H   0  0  0  0  0  0  0  0  0  0  0  0
   -1.6271   -6.7942   27.9589 H   0  0  0  0  0  0  0  0  0  0  0  0
   -1.6077   -9.3645   28.0447 H   0  0  0  0  0  0  0  0  0  0  0  0
    0.1806   -2.5416   22.4756 H   0  0  0  0  0  0  0  0  0  0  0  0
    3.3486   -1.6956   24.8357 H   0  0  0  0  0  0  0  0  0  0  0  0
    5.7297   -1.8680   24.1589 H   0  0  0  0  0  0  0  0  0  0  0  0
    5.1131   -3.3894   20.1555 H   0  0  0  0  0  0  0  0  0  0  0  0
    1.7502   -4.4301   23.2470 H   0  0  0  0  0  0  0  0  0  0  0  0
  1  2  2  0
  2  3  1  0
  3  4  1  0
  4  5  1  0
  5  6  1  0
  6  7  1  0
  7  8  2  0
  8  9  1  0
  9 10  1  0
  2 11  1  0
 11 12  2  0
 12 13  1  0
 13 14  2  0
 14 15  1  0
 15 16  2  0
 16 17  1  0
 17 18  1  0
 17 19  1  0
 17 20  1  0
 16 21  1  0
 21 22  2  0
 22 23  1  0
 10  6  2  0
 23 11  1  0
 22 13  1  0
  3 24  1  0
  4 25  1  0
  4 26  1  0
  5 27  1  0
  5 28  1  0
  7 29  1  0
  8 30  1  0
  9 31  1  0
 12 32  1  0
 14 33  1  0
 15 34  1  0
 21 35  1  0
 23 36  1  0
M  END
>  <Energy>  (1351) 
541.04101577087772

>  <compound_id>  (1351) 
30272

>  <target_id>  (1351) 
1

>  <reference_id>  (1351) 
97

>  <inspiration_ids>  (1351) 
[97, 7]

>  <energy_score>  (1351) 
504.75655635329076

>  <distance_score>  (1351) 
14.490578920414116

>  <path>  (1351) 
/opt/xchem-fragalysis-2/maxwin/BulkDock/SCRATCH/511024/C30272-P97/C30272-P97.minimised.mol

>  <scratch_subdir>  (1351) 
/opt/xchem-fragalysis-2/maxwin/BulkDock/SCRATCH/511024/C30272-P97

>  <fragmenstein_runtime>  (1351) 
12.298526763916016

>  <fragmenstein_outcome>  (1351) 
too moved

>  <fragmenstein_mode>  (1351) 
expansion

>  <fragmenstein_error>  (1351) 


$$$$
C30272-P7
     RDKit          3D

 36 38  0  0  0  0  0  0  0  0999 V2000
    1.9470   -3.9989   22.2894 O   0  0  0  0  0  0  0  0  0  0  0  0
    3.0901   -3.5391   22.2513 C   0  0  0  0  0  0  0  0  0  0  0  0
    3.8636   -2.5141   23.4976 N   0  0  0  0  0  0  0  0  0  0  0  0
    3.2921   -1.9056   24.8616 C   0  0  0  0  0  0  0  0  0  0  0  0
    3.0297   -2.4748   26.2981 C   0  0  0  0  0  0  0  0  0  0  0  0
    2.0006   -1.8570   27.3290 C   0  0  0  0  0  0  0  0  0  0  0  0
    1.6730   -0.5124   27.6640 C   0  0  0  0  0  0  0  0  0  0  0  0
    0.6302   -0.5800   28.5668 C   0  0  0  0  0  0  0  0  0  0  0  0
    0.4001   -1.9065   28.7595 N   0  0  0  0  0  0  0  0  0  0  0  0
    1.2722   -2.6944   28.1081 N   0  0  0  0  0  0  0  0  0  0  0  0
    4.3154   -3.9946   20.6967 C   0  0  0  0  0  0  0  0  0  0  0  0
    3.9322   -5.0201   19.2350 C   0  0  0  0  0  0  0  0  0  0  0  0
    3.7498   -4.1081   17.7563 C   0  0  0  0  0  0  0  0  0  0  0  0
    3.0498   -4.3112   16.5702 C   0  0  0  0  0  0  0  0  0  0  0  0
    2.8874   -3.2059   15.7151 C   0  0  0  0  0  0  0  0  0  0  0  0
    3.3545   -1.8938   16.0035 C   0  0  0  0  0  0  0  0  0  0  0  0
    3.0473   -0.7911   15.0167 C   0  0  0  0  0  0  0  0  0  0  0  0
    3.5508    0.4292   15.3670 F   0  0  0  0  0  0  0  0  0  0  0  0
    3.5399   -1.0423   13.7705 F   0  0  0  0  0  0  0  0  0  0  0  0
    1.7084   -0.5958   14.8457 F   0  0  0  0  0  0  0  0  0  0  0  0
    4.0733   -1.5993   17.1799 C   0  0  0  0  0  0  0  0  0  0  0  0
    4.2912   -2.6867   18.0476 C   0  0  0  0  0  0  0  0  0  0  0  0
    5.2478   -3.0800   19.6014 N   0  0  0  0  0  0  0  0  0  0  0  0
    4.7744   -2.2097   23.1670 H   0  0  0  0  0  0  0  0  0  0  0  0
    2.5303   -1.1945   24.6826 H   0  0  0  0  0  0  0  0  0  0  0  0
    4.1421   -1.2362   25.0792 H   0  0  0  0  0  0  0  0  0  0  0  0
    3.9624   -2.6100   26.8447 H   0  0  0  0  0  0  0  0  0  0  0  0
    2.5621   -3.4052   26.0940 H   0  0  0  0  0  0  0  0  0  0  0  0
    2.1176    0.3850   27.2586 H   0  0  0  0  0  0  0  0  0  0  0  0
    0.0446    0.1798   29.0622 H   0  0  0  0  0  0  0  0  0  0  0  0
   -0.3090   -2.3498   29.3328 H   0  0  0  0  0  0  0  0  0  0  0  0
    3.1539   -5.7794   19.3131 H   0  0  0  0  0  0  0  0  0  0  0  0
    2.5994   -5.2701   16.3402 H   0  0  0  0  0  0  0  0  0  0  0  0
    2.3271   -3.3654   14.7914 H   0  0  0  0  0  0  0  0  0  0  0  0
    4.5184   -0.6369   17.3377 H   0  0  0  0  0  0  0  0  0  0  0  0
    5.8324   -2.3472   19.9555 H   0  0  0  0  0  0  0  0  0  0  0  0
  1  2  2  0
  2  3  1  0
  3  4  1  0
  4  5  1  0
  5  6  1  0
  6  7  1  0
  7  8  2  0
  8  9  1  0
  9 10  1  0
  2 11  1  0
 11 12  2  0
 12 13  1  0
 13 14  2  0
 14 15  1  0
 15 16  2  0
 16 17  1  0
 17 18  1  0
 17 19  1  0
 17 20  1  0
 16 21  1  0
 21 22  2  0
 22 23  1  0
 10  6  2  0
 23 11  1  0
 22 13  1  0
  3 24  1  0
  4 25  1  0
  4 26  1  0
  5 27  1  0
  5 28  1  0
  7 29  1  0
  8 30  1  0
  9 31  1  0
 12 32  1  0
 14 33  1  0
 15 34  1  0
 21 35  1  0
 23 36  1  0
M  END
>  <Energy>  (1352) 
407.21956730840907

>  <compound_id>  (1352) 
30272

>  <target_id>  (1352) 
1

>  <reference_id>  (1352) 
7

>  <inspiration_ids>  (1352) 
[97, 7]

>  <energy_score>  (1352) 
370.93510789082393

>  <distance_score>  (1352) 
13.021892836694493

>  <path>  (1352) 
/opt/xchem-fragalysis-2/maxwin/BulkDock/SCRATCH/511024/C30272-P7/C30272-P7.minimised.mol

>  <scratch_subdir>  (1352) 
/opt/xchem-fragalysis-2/maxwin/BulkDock/SCRATCH/511024/C30272-P7

>  <fragmenstein_runtime>  (1352) 
9.412280797958374

>  <fragmenstein_outcome>  (1352) 
too moved

>  <fragmenstein_mode>  (1352) 
expansion

>  <fragmenstein_error>  (1352) 


$$$$
C46199-P97
     RDKit          3D

 48 51  0  0  0  0  0  0  0  0999 V2000
    6.7928    0.0481   24.2992 C   0  0  0  0  0  0  0  0  0  0  0  0
    7.1588   -0.5140   23.0125 N   0  0  0  0  0  0  0  0  0  0  0  0
    5.5814   -0.8846   22.9885 C   0  0  0  0  0  0  0  0  0  0  0  0
    4.7686   -1.6125   24.3333 C   0  0  0  0  0  0  0  0  0  0  0  0
    4.6173   -2.9504   24.2572 N   0  0  0  0  0  0  0  0  0  0  0  0
    3.8283   -3.2903   25.2863 N   0  0  0  0  0  0  0  0  0  0  0  0
    3.5742   -2.2965   26.1749 C   0  0  0  0  0  0  0  0  0  0  0  0
    4.0914   -1.1404   25.5988 C   0  0  0  0  0  0  0  0  0  0  0  0
    3.9026    0.2088   26.2487 C   0  0  0  0  0  0  0  0  0  0  0  0
    3.8924    0.1897   27.7828 C   0  0  0  0  0  0  0  0  0  0  0  0
    2.5689   -0.2171   28.4250 C   0  0  0  0  0  0  0  0  0  0  0  0
    1.8867   -1.4497   27.8395 C   0  0  0  0  0  0  0  0  0  0  0  0
    2.8398   -2.5709   27.4441 C   0  0  0  0  0  0  0  0  0  0  0  0
    7.5964    0.2413   21.6265 C   0  0  0  0  0  0  0  0  0  0  0  0
    7.6189    1.3954   21.3523 O   0  0  0  0  0  0  0  0  0  0  0  0
    8.0509   -0.9061   20.8987 N   0  0  0  0  0  0  0  0  0  0  0  0
    8.9422   -1.0454   19.3887 C   0  0  0  0  0  0  0  0  0  0  0  0
   10.1299   -2.6921   19.9313 C   0  0  0  0  0  0  0  0  0  0  0  0
   11.7900   -2.9802   18.6678 C   0  0  0  0  0  0  0  0  0  0  0  0
   11.7310   -1.8359   17.1555 C   0  0  0  0  0  0  0  0  0  0  0  0
   12.5155   -1.7637   16.0215 N   0  0  0  0  0  0  0  0  0  0  0  0
   12.1494   -0.7396   15.1695 C   0  0  0  0  0  0  0  0  0  0  0  0
   11.0599    0.0137   15.5698 C   0  0  0  0  0  0  0  0  0  0  0  0
   10.5700   -0.4720   16.8037 C   0  0  0  0  0  0  0  0  0  0  0  0
    9.0894    0.0154   17.8870 C   0  0  0  0  0  0  0  0  0  0  0  0
    7.5211    0.8572   24.4532 H   0  0  0  0  0  0  0  0  0  0  0  0
    5.8603    0.5029   24.5338 H   0  0  0  0  0  0  0  0  0  0  0  0
    7.0513   -0.6914   25.0705 H   0  0  0  0  0  0  0  0  0  0  0  0
    5.5385   -1.6744   22.2223 H   0  0  0  0  0  0  0  0  0  0  0  0
    5.0410   -0.0601   22.5370 H   0  0  0  0  0  0  0  0  0  0  0  0
    3.5270   -4.2546   25.3406 H   0  0  0  0  0  0  0  0  0  0  0  0
    4.7520    0.8420   26.0173 H   0  0  0  0  0  0  0  0  0  0  0  0
    3.0106    0.7037   25.8573 H   0  0  0  0  0  0  0  0  0  0  0  0
    4.1310    1.1989   28.1439 H   0  0  0  0  0  0  0  0  0  0  0  0
    4.6982   -0.4563   28.1551 H   0  0  0  0  0  0  0  0  0  0  0  0
    2.7503   -0.3853   29.4943 H   0  0  0  0  0  0  0  0  0  0  0  0
    1.8663    0.6240   28.3694 H   0  0  0  0  0  0  0  0  0  0  0  0
    1.2837   -1.1433   26.9814 H   0  0  0  0  0  0  0  0  0  0  0  0
    1.1775   -1.8300   28.5852 H   0  0  0  0  0  0  0  0  0  0  0  0
    2.2555   -3.4926   27.3314 H   0  0  0  0  0  0  0  0  0  0  0  0
    3.5599   -2.7597   28.2493 H   0  0  0  0  0  0  0  0  0  0  0  0
    7.9409   -1.7461   21.4943 H   0  0  0  0  0  0  0  0  0  0  0  0
    9.3939   -3.5423   20.3469 H   0  0  0  0  0  0  0  0  0  0  0  0
   12.4848   -3.8318   18.6214 H   0  0  0  0  0  0  0  0  0  0  0  0
   13.2839   -2.3944   15.8425 H   0  0  0  0  0  0  0  0  0  0  0  0
   12.7254   -0.6308   14.2590 H   0  0  0  0  0  0  0  0  0  0  0  0
   10.6363    0.8259   14.9927 H   0  0  0  0  0  0  0  0  0  0  0  0
    8.5062    0.8961   17.6504 H   0  0  0  0  0  0  0  0  0  0  0  0
  1  2  1  0
  2  3  1  0
  3  4  1  0
  4  5  2  0
  5  6  1  0
  6  7  1  0
  7  8  2  0
  8  9  1  0
  9 10  1  0
 10 11  1  0
 11 12  1  0
 12 13  1  0
  2 14  1  0
 14 15  2  0
 14 16  1  0
 16 17  1  0
 17 18  2  0
 18 19  1  0
 19 20  2  0
 20 21  1  0
 21 22  1  0
 22 23  2  0
 23 24  1  0
 24 25  2  0
  8  4  1  0
 25 17  1  0
 13  7  1  0
 24 20  1  0
  1 26  1  0
  1 27  1  0
  1 28  1  0
  3 29  1  0
  3 30  1  0
  6 31  1  0
  9 32  1  0
  9 33  1  0
 10 34  1  0
 10 35  1  0
 11 36  1  0
 11 37  1  0
 12 38  1  0
 12 39  1  0
 13 40  1  0
 13 41  1  0
 16 42  1  0
 18 43  1  0
 19 44  1  0
 21 45  1  0
 22 46  1  0
 23 47  1  0
 25 48  1  0
M  END
>  <Energy>  (1353) 
749.39155264127373

>  <compound_id>  (1353) 
46199

>  <target_id>  (1353) 
1

>  <reference_id>  (1353) 
97

>  <inspiration_ids>  (1353) 
[97, 7]

>  <energy_score>  (1353) 
726.5467632003172

>  <distance_score>  (1353) 
13.224063073941169

>  <path>  (1353) 
/opt/xchem-fragalysis-2/maxwin/BulkDock/SCRATCH/511024/C46199-P97/C46199-P97.minimised.mol

>  <scratch_subdir>  (1353) 
/opt/xchem-fragalysis-2/maxwin/BulkDock/SCRATCH/511024/C46199-P97

>  <fragmenstein_runtime>  (1353) 
9.048173904418945

>  <fragmenstein_outcome>  (1353) 
too moved

>  <fragmenstein_mode>  (1353) 
expansion

>  <fragmenstein_error>  (1353) 


$$$$
C46199-P7
     RDKit          3D

 48 51  0  0  0  0  0  0  0  0999 V2000
    4.4907   -3.5154   22.9375 C   0  0  0  0  0  0  0  0  0  0  0  0
    5.8782   -3.5265   22.4969 N   0  0  0  0  0  0  0  0  0  0  0  0
    6.1407   -3.3492   24.1352 C   0  0  0  0  0  0  0  0  0  0  0  0
    5.0074   -3.5022   25.3826 C   0  0  0  0  0  0  0  0  0  0  0  0
    4.6826   -4.7262   25.8527 N   0  0  0  0  0  0  0  0  0  0  0  0
    3.7442   -4.5144   26.7995 N   0  0  0  0  0  0  0  0  0  0  0  0
    3.4740   -3.2031   27.0307 C   0  0  0  0  0  0  0  0  0  0  0  0
    4.2529   -2.4982   26.1270 C   0  0  0  0  0  0  0  0  0  0  0  0
    4.2319   -1.0138   26.0056 C   0  0  0  0  0  0  0  0  0  0  0  0
    4.5293   -0.2927   27.3215 C   0  0  0  0  0  0  0  0  0  0  0  0
    3.3774   -0.3278   28.3329 C   0  0  0  0  0  0  0  0  0  0  0  0
    3.1261   -1.6906   28.9886 C   0  0  0  0  0  0  0  0  0  0  0  0
    2.5101   -2.7347   28.0562 C   0  0  0  0  0  0  0  0  0  0  0  0
    6.6715   -2.4948   21.7183 C   0  0  0  0  0  0  0  0  0  0  0  0
    6.3521   -1.4106   21.3781 O   0  0  0  0  0  0  0  0  0  0  0  0
    8.0845   -3.2905   21.3297 N   0  0  0  0  0  0  0  0  0  0  0  0
    9.4600   -2.8102   20.2026 C   0  0  0  0  0  0  0  0  0  0  0  0
    8.4712   -1.4428   18.9975 C   0  0  0  0  0  0  0  0  0  0  0  0
    8.9631   -1.4341   17.0063 C   0  0  0  0  0  0  0  0  0  0  0  0
   10.7783   -1.9406   16.8625 C   0  0  0  0  0  0  0  0  0  0  0  0
   11.6444   -1.9199   15.7846 N   0  0  0  0  0  0  0  0  0  0  0  0
   12.9218   -2.3347   16.1073 C   0  0  0  0  0  0  0  0  0  0  0  0
   13.1239   -2.7095   17.4253 C   0  0  0  0  0  0  0  0  0  0  0  0
   11.9256   -2.5454   18.1765 C   0  0  0  0  0  0  0  0  0  0  0  0
   11.5278   -2.7849   20.0508 C   0  0  0  0  0  0  0  0  0  0  0  0
    4.1437   -2.5660   23.3556 H   0  0  0  0  0  0  0  0  0  0  0  0
    4.1615   -4.4611   23.3800 H   0  0  0  0  0  0  0  0  0  0  0  0
    3.9409   -3.5208   21.9827 H   0  0  0  0  0  0  0  0  0  0  0  0
    6.9277   -4.0836   24.3527 H   0  0  0  0  0  0  0  0  0  0  0  0
    6.5801   -2.3496   24.2598 H   0  0  0  0  0  0  0  0  0  0  0  0
    3.3522   -5.3248   27.2652 H   0  0  0  0  0  0  0  0  0  0  0  0
    3.2603   -0.6939   25.6208 H   0  0  0  0  0  0  0  0  0  0  0  0
    4.9825   -0.7085   25.2670 H   0  0  0  0  0  0  0  0  0  0  0  0
    4.7284    0.7607   27.0866 H   0  0  0  0  0  0  0  0  0  0  0  0
    5.4429   -0.6896   27.7813 H   0  0  0  0  0  0  0  0  0  0  0  0
    3.6183    0.3842   29.1327 H   0  0  0  0  0  0  0  0  0  0  0  0
    2.4556    0.0371   27.8634 H   0  0  0  0  0  0  0  0  0  0  0  0
    2.4291   -1.5342   29.8217 H   0  0  0  0  0  0  0  0  0  0  0  0
    4.0580   -2.0688   29.4275 H   0  0  0  0  0  0  0  0  0  0  0  0
    2.1718   -3.5853   28.6609 H   0  0  0  0  0  0  0  0  0  0  0  0
    1.6196   -2.3216   27.5696 H   0  0  0  0  0  0  0  0  0  0  0  0
    8.1220   -4.1808   21.8355 H   0  0  0  0  0  0  0  0  0  0  0  0
    7.6442   -0.7732   19.3526 H   0  0  0  0  0  0  0  0  0  0  0  0
    8.5905   -0.7228   16.2607 H   0  0  0  0  0  0  0  0  0  0  0  0
   11.3579   -1.6483   14.8519 H   0  0  0  0  0  0  0  0  0  0  0  0
   13.6490   -2.3345   15.3055 H   0  0  0  0  0  0  0  0  0  0  0  0
   14.0687   -3.0509   17.8277 H   0  0  0  0  0  0  0  0  0  0  0  0
   12.2070   -3.4302   20.6303 H   0  0  0  0  0  0  0  0  0  0  0  0
  1  2  1  0
  2  3  1  0
  3  4  1  0
  4  5  2  0
  5  6  1  0
  6  7  1  0
  7  8  2  0
  8  9  1  0
  9 10  1  0
 10 11  1  0
 11 12  1  0
 12 13  1  0
  2 14  1  0
 14 15  2  0
 14 16  1  0
 16 17  1  0
 17 18  2  0
 18 19  1  0
 19 20  2  0
 20 21  1  0
 21 22  1  0
 22 23  2  0
 23 24  1  0
 24 25  2  0
  8  4  1  0
 25 17  1  0
 13  7  1  0
 24 20  1  0
  1 26  1  0
  1 27  1  0
  1 28  1  0
  3 29  1  0
  3 30  1  0
  6 31  1  0
  9 32  1  0
  9 33  1  0
 10 34  1  0
 10 35  1  0
 11 36  1  0
 11 37  1  0
 12 38  1  0
 12 39  1  0
 13 40  1  0
 13 41  1  0
 16 42  1  0
 18 43  1  0
 19 44  1  0
 21 45  1  0
 22 46  1  0
 23 47  1  0
 25 48  1  0
M  END
>  <Energy>  (1354) 
857.64189164065567

>  <compound_id>  (1354) 
46199

>  <target_id>  (1354) 
1

>  <reference_id>  (1354) 
7

>  <inspiration_ids>  (1354) 
[97, 7]

>  <energy_score>  (1354) 
834.7971021996972

>  <distance_score>  (1354) 
12.944485369388849

>  <path>  (1354) 
/opt/xchem-fragalysis-2/maxwin/BulkDock/SCRATCH/511024/C46199-P7/C46199-P7.minimised.mol

>  <scratch_subdir>  (1354) 
/opt/xchem-fragalysis-2/maxwin/BulkDock/SCRATCH/511024/C46199-P7

>  <fragmenstein_runtime>  (1354) 
10.32621693611145

>  <fragmenstein_outcome>  (1354) 
too moved

>  <fragmenstein_mode>  (1354) 
expansion

>  <fragmenstein_error>  (1354) 


$$$$
C30274-P97
     RDKit          3D

 35 37  0  0  0  0  0  0  0  0999 V2000
    3.2509   -4.1243   22.7966 C   0  0  0  0  0  0  0  0  0  0  0  0
    4.6519   -3.6788   22.7486 N   0  0  0  0  0  0  0  0  0  0  0  0
    4.6554   -4.2835   24.2313 C   0  0  0  0  0  0  0  0  0  0  0  0
    3.8011   -3.7014   25.4371 C   0  0  0  0  0  0  0  0  0  0  0  0
    3.5859   -2.3526   25.8566 C   0  0  0  0  0  0  0  0  0  0  0  0
    2.8410   -2.4201   27.0178 C   0  0  0  0  0  0  0  0  0  0  0  0
    2.6371   -3.7448   27.2429 N   0  0  0  0  0  0  0  0  0  0  0  0
    3.2252   -4.5463   26.3265 N   0  0  0  0  0  0  0  0  0  0  0  0
    5.8217   -4.2200   21.9616 C   0  0  0  0  0  0  0  0  0  0  0  0
    5.8998   -5.1743   21.2759 O   0  0  0  0  0  0  0  0  0  0  0  0
    6.8215   -3.2253   22.3118 N   0  0  0  0  0  0  0  0  0  0  0  0
    8.1957   -3.1546   22.0173 C   0  0  0  0  0  0  0  0  0  0  0  0
    9.3627   -3.5522   20.5844 C   0  0  0  0  0  0  0  0  0  0  0  0
   11.3681   -3.5875   20.7939 C   0  0  0  0  0  0  0  0  0  0  0  0
   11.6586   -3.5272   22.5528 C   0  0  0  0  0  0  0  0  0  0  0  0
   12.8535   -3.7114   23.2180 N   0  0  0  0  0  0  0  0  0  0  0  0
   12.7729   -3.2613   24.5095 C   0  0  0  0  0  0  0  0  0  0  0  0
   11.5010   -2.8296   24.8259 C   0  0  0  0  0  0  0  0  0  0  0  0
   10.6543   -2.9460   23.6904 C   0  0  0  0  0  0  0  0  0  0  0  0
    8.9438   -2.7464   23.5576 C   0  0  0  0  0  0  0  0  0  0  0  0
    2.9262   -4.0278   21.7495 H   0  0  0  0  0  0  0  0  0  0  0  0
    2.6234   -3.4090   23.3110 H   0  0  0  0  0  0  0  0  0  0  0  0
    3.0538   -5.1880   22.9915 H   0  0  0  0  0  0  0  0  0  0  0  0
    5.6884   -4.0960   24.5656 H   0  0  0  0  0  0  0  0  0  0  0  0
    4.6177   -5.3864   24.2043 H   0  0  0  0  0  0  0  0  0  0  0  0
    3.9147   -1.4554   25.3488 H   0  0  0  0  0  0  0  0  0  0  0  0
    2.4318   -1.6556   27.6604 H   0  0  0  0  0  0  0  0  0  0  0  0
    2.1213   -4.1797   27.9992 H   0  0  0  0  0  0  0  0  0  0  0  0
    6.4294   -2.5876   22.9914 H   0  0  0  0  0  0  0  0  0  0  0  0
    8.8294   -4.1361   19.8891 H   0  0  0  0  0  0  0  0  0  0  0  0
   12.1245   -4.1861   20.2655 H   0  0  0  0  0  0  0  0  0  0  0  0
   13.7065   -3.9858   22.7542 H   0  0  0  0  0  0  0  0  0  0  0  0
   13.6593   -3.2928   25.1287 H   0  0  0  0  0  0  0  0  0  0  0  0
   11.2013   -2.4772   25.8038 H   0  0  0  0  0  0  0  0  0  0  0  0
    8.3749   -2.5144   24.4517 H   0  0  0  0  0  0  0  0  0  0  0  0
  1  2  1  0
  2  3  1  0
  3  4  1  0
  4  5  1  0
  5  6  2  0
  6  7  1  0
  7  8  1  0
  2  9  1  0
  9 10  2  0
  9 11  1  0
 11 12  1  0
 12 13  2  0
 13 14  1  0
 14 15  2  0
 15 16  1  0
 16 17  1  0
 17 18  2  0
 18 19  1  0
 19 20  2  0
  8  4  2  0
 20 12  1  0
 19 15  1  0
  1 21  1  0
  1 22  1  0
  1 23  1  0
  3 24  1  0
  3 25  1  0
  5 26  1  0
  6 27  1  0
  7 28  1  0
 11 29  1  0
 13 30  1  0
 14 31  1  0
 16 32  1  0
 17 33  1  0
 18 34  1  0
 20 35  1  0
M  END
>  <Energy>  (1355) 
388.69923440809799

>  <compound_id>  (1355) 
30274

>  <target_id>  (1355) 
1

>  <reference_id>  (1355) 
97

>  <inspiration_ids>  (1355) 
[97, 7]

>  <energy_score>  (1355) 
372.5153413332209

>  <distance_score>  (1355) 
13.576216042430934

>  <path>  (1355) 
/opt/xchem-fragalysis-2/maxwin/BulkDock/SCRATCH/511024/C30274-P97/C30274-P97.minimised.mol

>  <scratch_subdir>  (1355) 
/opt/xchem-fragalysis-2/maxwin/BulkDock/SCRATCH/511024/C30274-P97

>  <fragmenstein_runtime>  (1355) 
6.293242454528809

>  <fragmenstein_outcome>  (1355) 
too moved

>  <fragmenstein_mode>  (1355) 
expansion

>  <fragmenstein_error>  (1355) 


$$$$
C30274-P7
     RDKit          3D

 35 37  0  0  0  0  0  0  0  0999 V2000
    2.1413   -2.0764   27.9510 C   0  0  0  0  0  0  0  0  0  0  0  0
    2.9756   -1.2427   27.0779 N   0  0  0  0  0  0  0  0  0  0  0  0
    2.3737   -0.0731   28.0073 C   0  0  0  0  0  0  0  0  0  0  0  0
    0.8848    0.0225   28.5976 C   0  0  0  0  0  0  0  0  0  0  0  0
    0.4966   -0.0726   29.9787 C   0  0  0  0  0  0  0  0  0  0  0  0
   -0.8774    0.0096   29.9999 C   0  0  0  0  0  0  0  0  0  0  0  0
   -1.2475    0.1607   28.6985 N   0  0  0  0  0  0  0  0  0  0  0  0
   -0.2085    0.2143   27.8375 N   0  0  0  0  0  0  0  0  0  0  0  0
    4.4852   -1.1168   26.9876 C   0  0  0  0  0  0  0  0  0  0  0  0
    5.3140   -1.6025   27.6698 O   0  0  0  0  0  0  0  0  0  0  0  0
    4.6191   -0.2970   25.7407 N   0  0  0  0  0  0  0  0  0  0  0  0
    5.7760    0.0495   24.9696 C   0  0  0  0  0  0  0  0  0  0  0  0
    7.0388   -0.4850   25.2579 C   0  0  0  0  0  0  0  0  0  0  0  0
    8.1790   -0.2332   24.4583 C   0  0  0  0  0  0  0  0  0  0  0  0
    8.0239    0.5759   23.3281 C   0  0  0  0  0  0  0  0  0  0  0  0
    8.9476    1.0506   22.4239 N   0  0  0  0  0  0  0  0  0  0  0  0
    8.3270    1.7880   21.4497 C   0  0  0  0  0  0  0  0  0  0  0  0
    6.9858    1.8258   21.7537 C   0  0  0  0  0  0  0  0  0  0  0  0
    6.7889    1.1013   22.9671 C   0  0  0  0  0  0  0  0  0  0  0  0
    5.6750    0.8528   23.8168 C   0  0  0  0  0  0  0  0  0  0  0  0
    2.4693   -3.0937   27.6846 H   0  0  0  0  0  0  0  0  0  0  0  0
    1.0837   -2.1060   27.6720 H   0  0  0  0  0  0  0  0  0  0  0  0
    2.3899   -2.0590   29.0230 H   0  0  0  0  0  0  0  0  0  0  0  0
    2.5018    0.8293   27.3921 H   0  0  0  0  0  0  0  0  0  0  0  0
    3.0756    0.0583   28.8478 H   0  0  0  0  0  0  0  0  0  0  0  0
    1.1520   -0.2113   30.8277 H   0  0  0  0  0  0  0  0  0  0  0  0
   -1.6012   -0.0336   30.7994 H   0  0  0  0  0  0  0  0  0  0  0  0
   -2.1835    0.2460   28.3178 H   0  0  0  0  0  0  0  0  0  0  0  0
    3.6964   -0.1104   25.3627 H   0  0  0  0  0  0  0  0  0  0  0  0
    7.1652   -1.1257   26.1287 H   0  0  0  0  0  0  0  0  0  0  0  0
    9.1449   -0.6405   24.7406 H   0  0  0  0  0  0  0  0  0  0  0  0
    9.9412    0.8812   22.5021 H   0  0  0  0  0  0  0  0  0  0  0  0
    8.8854    2.2613   20.6556 H   0  0  0  0  0  0  0  0  0  0  0  0
    6.2236    2.3577   21.1996 H   0  0  0  0  0  0  0  0  0  0  0  0
    4.7251    1.3066   23.5569 H   0  0  0  0  0  0  0  0  0  0  0  0
  1  2  1  0
  2  3  1  0
  3  4  1  0
  4  5  1  0
  5  6  2  0
  6  7  1  0
  7  8  1  0
  2  9  1  0
  9 10  2  0
  9 11  1  0
 11 12  1  0
 12 13  2  0
 13 14  1  0
 14 15  2  0
 15 16  1  0
 16 17  1  0
 17 18  2  0
 18 19  1  0
 19 20  2  0
  8  4  2  0
 20 12  1  0
 19 15  1  0
  1 21  1  0
  1 22  1  0
  1 23  1  0
  3 24  1  0
  3 25  1  0
  5 26  1  0
  6 27  1  0
  7 28  1  0
 11 29  1  0
 13 30  1  0
 14 31  1  0
 16 32  1  0
 17 33  1  0
 18 34  1  0
 20 35  1  0
M  END
>  <Energy>  (1356) 
63.896314359455758

>  <compound_id>  (1356) 
30274

>  <target_id>  (1356) 
1

>  <reference_id>  (1356) 
7

>  <inspiration_ids>  (1356) 
[97, 7]

>  <energy_score>  (1356) 
47.71242128457311

>  <distance_score>  (1356) 
12.217723657838553

>  <path>  (1356) 
/opt/xchem-fragalysis-2/maxwin/BulkDock/SCRATCH/511024/C30274-P7/C30274-P7.minimised.mol

>  <scratch_subdir>  (1356) 
/opt/xchem-fragalysis-2/maxwin/BulkDock/SCRATCH/511024/C30274-P7

>  <fragmenstein_runtime>  (1356) 
7.517958641052246

>  <fragmenstein_outcome>  (1356) 
too moved

>  <fragmenstein_mode>  (1356) 
expansion

>  <fragmenstein_error>  (1356) 


$$$$
C58711-P97
     RDKit          3D

 21 21  0  0  0  0  0  0  0  0999 V2000
   16.0124   -2.6774   10.4221 C   0  0  0  0  0  0  0  0  0  0  0  0
   15.7880   -1.3036   11.0125 C   0  0  0  0  0  0  0  0  0  0  0  0
   15.7171   -0.3345   10.3691 O   0  0  0  0  0  0  0  0  0  0  0  0
   15.6558   -1.5040   12.5398 N   0  0  0  0  0  0  0  0  0  0  0  0
   15.5033   -0.5400   13.6003 C   0  0  0  0  0  0  0  0  0  0  0  0
   16.6766   -0.5899   14.5698 C   0  0  0  0  0  0  0  0  0  0  0  0
   14.1751   -0.7886   14.2414 C   0  0  0  0  0  0  0  0  0  0  0  0
   13.0043    0.0011   13.9967 C   0  0  0  0  0  0  0  0  0  0  0  0
   11.8875   -0.3481   14.6247 N   0  0  0  0  0  0  0  0  0  0  0  0
   12.1785   -1.7381   15.4722 S   0  0  0  0  0  0  0  0  0  0  0  0
   13.8488   -1.8066   15.1231 C   0  0  0  0  0  0  0  0  0  0  0  0
   16.1016   -2.5953    9.3349 H   0  0  0  0  0  0  0  0  0  0  0  0
   15.1652   -3.3277   10.6537 H   0  0  0  0  0  0  0  0  0  0  0  0
   16.9382   -3.1048   10.8164 H   0  0  0  0  0  0  0  0  0  0  0  0
   15.6898   -2.4962   12.7562 H   0  0  0  0  0  0  0  0  0  0  0  0
   15.4964    0.4505   13.1290 H   0  0  0  0  0  0  0  0  0  0  0  0
   17.6140   -0.3594   14.0513 H   0  0  0  0  0  0  0  0  0  0  0  0
   16.7919   -1.5829   15.0192 H   0  0  0  0  0  0  0  0  0  0  0  0
   16.5486    0.1348   15.3810 H   0  0  0  0  0  0  0  0  0  0  0  0
   12.9494    0.8628   13.3428 H   0  0  0  0  0  0  0  0  0  0  0  0
   14.4738   -2.5883   15.5301 H   0  0  0  0  0  0  0  0  0  0  0  0
  1  2  1  0
  2  3  2  0
  2  4  1  0
  4  5  1  0
  5  6  1  0
  5  7  1  0
  7  8  1  0
  8  9  2  0
  9 10  1  0
 10 11  1  0
 11  7  2  0
  1 12  1  0
  1 13  1  0
  1 14  1  0
  4 15  1  0
  5 16  1  0
  6 17  1  0
  6 18  1  0
  6 19  1  0
  8 20  1  0
 11 21  1  0
M  END
>  <Energy>  (1357) 
-15.247043461201974

>  <compound_id>  (1357) 
58711

>  <target_id>  (1357) 
1

>  <reference_id>  (1357) 
97

>  <inspiration_ids>  (1357) 
[97, 7]

>  <energy_score>  (1357) 
-11.077494668307395

>  <distance_score>  (1357) 
21.974633680457856

>  <path>  (1357) 
/opt/xchem-fragalysis-2/maxwin/BulkDock/SCRATCH/511024/C58711-P97/C58711-P97.minimised.mol

>  <scratch_subdir>  (1357) 
/opt/xchem-fragalysis-2/maxwin/BulkDock/SCRATCH/511024/C58711-P97

>  <fragmenstein_runtime>  (1357) 
3.9417409896850586

>  <fragmenstein_outcome>  (1357) 
too moved

>  <fragmenstein_mode>  (1357) 
expansion

>  <fragmenstein_error>  (1357) 


$$$$
C58711-P7
     RDKit          3D

 21 21  0  0  0  0  0  0  0  0999 V2000
   15.6466    0.0931   19.2787 C   0  0  0  0  0  0  0  0  0  0  0  0
   15.9130   -0.6245   17.9738 C   0  0  0  0  0  0  0  0  0  0  0  0
   16.3120   -1.7183   17.9115 O   0  0  0  0  0  0  0  0  0  0  0  0
   15.5573    0.3800   16.8488 N   0  0  0  0  0  0  0  0  0  0  0  0
   15.5296    0.2105   15.4141 C   0  0  0  0  0  0  0  0  0  0  0  0
   16.7253   -0.5687   14.8822 C   0  0  0  0  0  0  0  0  0  0  0  0
   14.2183   -0.3983   15.0266 C   0  0  0  0  0  0  0  0  0  0  0  0
   13.3164    0.1710   14.0713 C   0  0  0  0  0  0  0  0  0  0  0  0
   12.1854   -0.4781   13.8300 N   0  0  0  0  0  0  0  0  0  0  0  0
   12.1612   -1.8553   14.7519 S   0  0  0  0  0  0  0  0  0  0  0  0
   13.6790   -1.5874   15.4941 C   0  0  0  0  0  0  0  0  0  0  0  0
   15.9270   -0.5556   20.1137 H   0  0  0  0  0  0  0  0  0  0  0  0
   14.5824    0.3304   19.3616 H   0  0  0  0  0  0  0  0  0  0  0  0
   16.2429    1.0080   19.3329 H   0  0  0  0  0  0  0  0  0  0  0  0
   15.1597    1.2174   17.2561 H   0  0  0  0  0  0  0  0  0  0  0  0
   15.5837    1.2272   15.0050 H   0  0  0  0  0  0  0  0  0  0  0  0
   16.7109   -0.6043   13.7872 H   0  0  0  0  0  0  0  0  0  0  0  0
   17.6647   -0.1004   15.1952 H   0  0  0  0  0  0  0  0  0  0  0  0
   16.7349   -1.6032   15.2426 H   0  0  0  0  0  0  0  0  0  0  0  0
   13.4713    1.0935   13.5265 H   0  0  0  0  0  0  0  0  0  0  0  0
   14.0883   -2.2886   16.2089 H   0  0  0  0  0  0  0  0  0  0  0  0
  1  2  1  0
  2  3  2  0
  2  4  1  0
  4  5  1  0
  5  6  1  0
  5  7  1  0
  7  8  1  0
  8  9  2  0
  9 10  1  0
 10 11  1  0
 11  7  2  0
  1 12  1  0
  1 13  1  0
  1 14  1  0
  4 15  1  0
  5 16  1  0
  6 17  1  0
  6 18  1  0
  6 19  1  0
  8 20  1  0
 11 21  1  0
M  END
>  <Energy>  (1358) 
-15.881347592322859

>  <compound_id>  (1358) 
58711

>  <target_id>  (1358) 
1

>  <reference_id>  (1358) 
7

>  <inspiration_ids>  (1358) 
[97, 7]

>  <energy_score>  (1358) 
-11.71179879942872

>  <distance_score>  (1358) 
19.101791929911762

>  <path>  (1358) 
/opt/xchem-fragalysis-2/maxwin/BulkDock/SCRATCH/511024/C58711-P7/C58711-P7.minimised.mol

>  <scratch_subdir>  (1358) 
/opt/xchem-fragalysis-2/maxwin/BulkDock/SCRATCH/511024/C58711-P7

>  <fragmenstein_runtime>  (1358) 
3.6099536418914795

>  <fragmenstein_outcome>  (1358) 
too moved

>  <fragmenstein_mode>  (1358) 
expansion

>  <fragmenstein_error>  (1358) 


$$$$
C41247-P97
     RDKit          3D

 24 24  0  0  0  0  0  0  0  0999 V2000
   13.0393    2.3407   12.2687 C   0  0  0  0  0  0  0  0  0  0  0  0
   14.1062    2.1524   13.3249 C   0  0  0  0  0  0  0  0  0  0  0  0
   14.8721    2.9791   13.6198 O   0  0  0  0  0  0  0  0  0  0  0  0
   13.9450    0.7071   13.8433 N   0  0  0  0  0  0  0  0  0  0  0  0
   14.6347    0.0077   14.9035 C   0  0  0  0  0  0  0  0  0  0  0  0
   16.0448   -0.3778   14.4546 C   0  0  0  0  0  0  0  0  0  0  0  0
   13.8183   -1.1991   15.3449 C   0  0  0  0  0  0  0  0  0  0  0  0
   14.1853   -1.9372   16.4588 C   0  0  0  0  0  0  0  0  0  0  0  0
   13.4067   -3.0328   16.8232 C   0  0  0  0  0  0  0  0  0  0  0  0
   12.2793   -3.3665   16.0888 C   0  0  0  0  0  0  0  0  0  0  0  0
   11.9706   -2.5845   15.0026 C   0  0  0  0  0  0  0  0  0  0  0  0
   12.7105   -1.5199   14.6235 N   0  0  0  0  0  0  0  0  0  0  0  0
   12.0475    2.2041   12.7083 H   0  0  0  0  0  0  0  0  0  0  0  0
   13.1921    1.6274   11.4546 H   0  0  0  0  0  0  0  0  0  0  0  0
   13.1045    3.3545   11.8629 H   0  0  0  0  0  0  0  0  0  0  0  0
   13.1165    0.2865   13.4262 H   0  0  0  0  0  0  0  0  0  0  0  0
   14.7075    0.7114   15.7411 H   0  0  0  0  0  0  0  0  0  0  0  0
   16.0135   -1.0753   13.6093 H   0  0  0  0  0  0  0  0  0  0  0  0
   16.6067    0.5056   14.1322 H   0  0  0  0  0  0  0  0  0  0  0  0
   16.6088   -0.8559   15.2621 H   0  0  0  0  0  0  0  0  0  0  0  0
   15.0635   -1.6778   17.0413 H   0  0  0  0  0  0  0  0  0  0  0  0
   13.6809   -3.6290   17.6905 H   0  0  0  0  0  0  0  0  0  0  0  0
   11.6727   -4.2238   16.3549 H   0  0  0  0  0  0  0  0  0  0  0  0
   11.1067   -2.7947   14.3789 H   0  0  0  0  0  0  0  0  0  0  0  0
  1  2  1  0
  2  3  2  0
  2  4  1  0
  4  5  1  0
  5  6  1  0
  5  7  1  0
  7  8  2  0
  8  9  1  0
  9 10  2  0
 10 11  1  0
 11 12  2  0
 12  7  1  0
  1 13  1  0
  1 14  1  0
  1 15  1  0
  4 16  1  0
  5 17  1  0
  6 18  1  0
  6 19  1  0
  6 20  1  0
  8 21  1  0
  9 22  1  0
 10 23  1  0
 11 24  1  0
M  END
>  <Energy>  (1359) 
18.959761814488417

>  <compound_id>  (1359) 
41247

>  <target_id>  (1359) 
1

>  <reference_id>  (1359) 
97

>  <inspiration_ids>  (1359) 
[97, 7]

>  <energy_score>  (1359) 
-6.382083651030939

>  <distance_score>  (1359) 
19.087050584093813

>  <path>  (1359) 
/opt/xchem-fragalysis-2/maxwin/BulkDock/SCRATCH/511024/C41247-P97/C41247-P97.minimised.mol

>  <scratch_subdir>  (1359) 
/opt/xchem-fragalysis-2/maxwin/BulkDock/SCRATCH/511024/C41247-P97

>  <fragmenstein_runtime>  (1359) 
4.676763296127319

>  <fragmenstein_outcome>  (1359) 
too moved

>  <fragmenstein_mode>  (1359) 
expansion

>  <fragmenstein_error>  (1359) 


$$$$
C41247-P7
     RDKit          3D

 24 24  0  0  0  0  0  0  0  0999 V2000
   13.6984    2.0450   11.7154 C   0  0  0  0  0  0  0  0  0  0  0  0
   14.5648    1.9533   12.9522 C   0  0  0  0  0  0  0  0  0  0  0  0
   15.3419    2.7671   13.2543 O   0  0  0  0  0  0  0  0  0  0  0  0
   14.1807    0.6292   13.6479 N   0  0  0  0  0  0  0  0  0  0  0  0
   14.7418   -0.0160   14.8122 C   0  0  0  0  0  0  0  0  0  0  0  0
   16.1506   -0.5277   14.5147 C   0  0  0  0  0  0  0  0  0  0  0  0
   13.8279   -1.1386   15.2796 C   0  0  0  0  0  0  0  0  0  0  0  0
   13.9375   -1.6499   16.5638 C   0  0  0  0  0  0  0  0  0  0  0  0
   13.0892   -2.6854   16.9478 C   0  0  0  0  0  0  0  0  0  0  0  0
   12.1465   -3.1810   16.0602 C   0  0  0  0  0  0  0  0  0  0  0  0
   12.0906   -2.6200   14.8067 C   0  0  0  0  0  0  0  0  0  0  0  0
   12.9144   -1.6301   14.4005 N   0  0  0  0  0  0  0  0  0  0  0  0
   12.6419    1.9617   11.9850 H   0  0  0  0  0  0  0  0  0  0  0  0
   13.8574    3.0128   11.2311 H   0  0  0  0  0  0  0  0  0  0  0  0
   13.9727    1.2514   11.0153 H   0  0  0  0  0  0  0  0  0  0  0  0
   13.5208    0.1183   13.0658 H   0  0  0  0  0  0  0  0  0  0  0  0
   14.7998    0.7543   15.5903 H   0  0  0  0  0  0  0  0  0  0  0  0
   16.1387   -1.2811   13.7182 H   0  0  0  0  0  0  0  0  0  0  0  0
   16.8026    0.2889   14.1862 H   0  0  0  0  0  0  0  0  0  0  0  0
   16.6052   -0.9846   15.4002 H   0  0  0  0  0  0  0  0  0  0  0  0
   14.6746   -1.2620   17.2599 H   0  0  0  0  0  0  0  0  0  0  0  0
   13.1690   -3.1111   17.9458 H   0  0  0  0  0  0  0  0  0  0  0  0
   11.4926   -3.9987   16.3345 H   0  0  0  0  0  0  0  0  0  0  0  0
   11.3788   -2.9633   14.0616 H   0  0  0  0  0  0  0  0  0  0  0  0
  1  2  1  0
  2  3  2  0
  2  4  1  0
  4  5  1  0
  5  6  1  0
  5  7  1  0
  7  8  2  0
  8  9  1  0
  9 10  2  0
 10 11  1  0
 11 12  2  0
 12  7  1  0
  1 13  1  0
  1 14  1  0
  1 15  1  0
  4 16  1  0
  5 17  1  0
  6 18  1  0
  6 19  1  0
  6 20  1  0
  8 21  1  0
  9 22  1  0
 10 23  1  0
 11 24  1  0
M  END
>  <Energy>  (1360) 
18.715502479857793

>  <compound_id>  (1360) 
41247

>  <target_id>  (1360) 
1

>  <reference_id>  (1360) 
7

>  <inspiration_ids>  (1360) 
[97, 7]

>  <energy_score>  (1360) 
-6.62634298566141

>  <distance_score>  (1360) 
19.442040672359962

>  <path>  (1360) 
/opt/xchem-fragalysis-2/maxwin/BulkDock/SCRATCH/511024/C41247-P7/C41247-P7.minimised.mol

>  <scratch_subdir>  (1360) 
/opt/xchem-fragalysis-2/maxwin/BulkDock/SCRATCH/511024/C41247-P7

>  <fragmenstein_runtime>  (1360) 
6.689534425735474

>  <fragmenstein_outcome>  (1360) 
too moved

>  <fragmenstein_mode>  (1360) 
expansion

>  <fragmenstein_error>  (1360) 


$$$$
C41248-P97
     RDKit          3D

 43 45  0  0  0  0  0  0  0  0999 V2000
    1.5169   -2.8054   27.9996 O   0  0  0  0  0  0  0  0  0  0  0  0
    1.7750   -1.6351   27.9006 C   0  0  0  0  0  0  0  0  0  0  0  0
    1.0906   -0.6083   28.9348 C   0  0  0  0  0  0  0  0  0  0  0  0
   -0.3393   -0.8604   29.4169 N   0  0  0  0  0  0  0  0  0  0  0  0
   -0.7552    0.2316   30.3591 C   0  0  0  0  0  0  0  0  0  0  0  0
   -2.1606    0.1039   31.0287 C   0  0  0  0  0  0  0  0  0  0  0  0
   -2.3048   -1.1832   31.7380 N   0  0  0  0  0  0  0  0  0  0  0  0
   -3.5547   -1.2472   32.4160 C   0  0  0  0  0  0  0  0  0  0  0  0
   -3.7415   -0.4286   33.5438 C   0  0  0  0  0  0  0  0  0  0  0  0
   -4.9848   -0.3393   34.1805 C   0  0  0  0  0  0  0  0  0  0  0  0
   -6.0443   -1.0672   33.6785 C   0  0  0  0  0  0  0  0  0  0  0  0
   -5.7846   -1.8723   32.5853 C   0  0  0  0  0  0  0  0  0  0  0  0
   -4.5766   -2.0025   31.9635 N   0  0  0  0  0  0  0  0  0  0  0  0
   -1.9659   -2.3019   30.8201 C   0  0  0  0  0  0  0  0  0  0  0  0
   -0.5298   -2.1329   30.1682 C   0  0  0  0  0  0  0  0  0  0  0  0
    2.7346   -0.9280   27.0093 N   0  0  0  0  0  0  0  0  0  0  0  0
    3.7472   -1.4628   26.0288 C   0  0  0  0  0  0  0  0  0  0  0  0
    4.3521   -0.4317   25.0121 C   0  0  0  0  0  0  0  0  0  0  0  0
    5.3537   -0.9396   23.9808 C   0  0  0  0  0  0  0  0  0  0  0  0
    6.5488   -1.4449   24.2336 N   0  0  0  0  0  0  0  0  0  0  0  0
    7.3059   -1.6558   23.0874 N   0  0  0  0  0  0  0  0  0  0  0  0
    6.6641   -1.2886   22.0026 C   0  0  0  0  0  0  0  0  0  0  0  0
    5.0889   -0.6787   22.2828 S   0  0  0  0  0  0  0  0  0  0  0  0
    1.0840    0.3759   28.4520 H   0  0  0  0  0  0  0  0  0  0  0  0
    1.7634   -0.5577   29.8001 H   0  0  0  0  0  0  0  0  0  0  0  0
   -0.0100    0.3115   31.1628 H   0  0  0  0  0  0  0  0  0  0  0  0
   -0.7380    1.1816   29.8108 H   0  0  0  0  0  0  0  0  0  0  0  0
   -2.9258    0.2138   30.2537 H   0  0  0  0  0  0  0  0  0  0  0  0
   -2.2677    0.9474   31.7213 H   0  0  0  0  0  0  0  0  0  0  0  0
   -2.9032    0.1443   33.9289 H   0  0  0  0  0  0  0  0  0  0  0  0
   -5.1109    0.3038   35.0456 H   0  0  0  0  0  0  0  0  0  0  0  0
   -7.0349   -1.0087   34.1112 H   0  0  0  0  0  0  0  0  0  0  0  0
   -6.5838   -2.4357   32.1247 H   0  0  0  0  0  0  0  0  0  0  0  0
   -1.9753   -3.2455   31.3771 H   0  0  0  0  0  0  0  0  0  0  0  0
   -2.7002   -2.3687   30.0112 H   0  0  0  0  0  0  0  0  0  0  0  0
   -0.3898   -2.9820   29.4930 H   0  0  0  0  0  0  0  0  0  0  0  0
    0.2205   -2.2083   30.9659 H   0  0  0  0  0  0  0  0  0  0  0  0
    2.6329    0.0696   27.1369 H   0  0  0  0  0  0  0  0  0  0  0  0
    4.5530   -1.8881   26.6378 H   0  0  0  0  0  0  0  0  0  0  0  0
    3.2833   -2.3002   25.5020 H   0  0  0  0  0  0  0  0  0  0  0  0
    3.5156    0.0601   24.5009 H   0  0  0  0  0  0  0  0  0  0  0  0
    4.8497    0.3576   25.5907 H   0  0  0  0  0  0  0  0  0  0  0  0
    7.0982   -1.3603   21.0177 H   0  0  0  0  0  0  0  0  0  0  0  0
  1  2  2  0
  2  3  1  0
  3  4  1  0
  4  5  1  0
  5  6  1  0
  6  7  1  0
  7  8  1  0
  8  9  2  0
  9 10  1  0
 10 11  2  0
 11 12  1  0
 12 13  2  0
  7 14  1  0
 14 15  1  0
  2 16  1  0
 16 17  1  0
 17 18  1  0
 18 19  1  0
 19 20  2  0
 20 21  1  0
 21 22  2  0
 22 23  1  0
 15  4  1  0
 23 19  1  0
 13  8  1  0
  3 24  1  0
  3 25  1  0
  5 26  1  0
  5 27  1  0
  6 28  1  0
  6 29  1  0
  9 30  1  0
 10 31  1  0
 11 32  1  0
 12 33  1  0
 14 34  1  0
 14 35  1  0
 15 36  1  0
 15 37  1  0
 16 38  1  0
 17 39  1  0
 17 40  1  0
 18 41  1  0
 18 42  1  0
 22 43  1  0
M  END
>  <Energy>  (1361) 
108.16869628327836

>  <compound_id>  (1361) 
41248

>  <target_id>  (1361) 
1

>  <reference_id>  (1361) 
97

>  <inspiration_ids>  (1361) 
[97, 7]

>  <energy_score>  (1361) 
-63.28547572026747

>  <distance_score>  (1361) 
13.82467879709357

>  <path>  (1361) 
/opt/xchem-fragalysis-2/maxwin/BulkDock/SCRATCH/511024/C41248-P97/C41248-P97.minimised.mol

>  <scratch_subdir>  (1361) 
/opt/xchem-fragalysis-2/maxwin/BulkDock/SCRATCH/511024/C41248-P97

>  <fragmenstein_runtime>  (1361) 
13.255727052688599

>  <fragmenstein_outcome>  (1361) 
too moved

>  <fragmenstein_mode>  (1361) 
expansion

>  <fragmenstein_error>  (1361) 


$$$$
C41248-P7
     RDKit          3D

 43 45  0  0  0  0  0  0  0  0999 V2000
    2.3628    0.5743   28.0684 O   0  0  0  0  0  0  0  0  0  0  0  0
    2.2415   -0.4929   27.5289 C   0  0  0  0  0  0  0  0  0  0  0  0
    1.2215   -1.5728   28.1481 C   0  0  0  0  0  0  0  0  0  0  0  0
    0.4548   -1.1840   29.3998 N   0  0  0  0  0  0  0  0  0  0  0  0
   -0.7447   -0.3414   29.1768 C   0  0  0  0  0  0  0  0  0  0  0  0
   -1.5494    0.0173   30.4863 C   0  0  0  0  0  0  0  0  0  0  0  0
   -1.8583   -1.1533   31.3309 N   0  0  0  0  0  0  0  0  0  0  0  0
   -3.0094   -1.1069   32.1242 C   0  0  0  0  0  0  0  0  0  0  0  0
   -3.3153    0.0409   32.8722 C   0  0  0  0  0  0  0  0  0  0  0  0
   -4.4833    0.1212   33.6428 C   0  0  0  0  0  0  0  0  0  0  0  0
   -5.3362   -0.9627   33.6763 C   0  0  0  0  0  0  0  0  0  0  0  0
   -4.9565   -2.0697   32.9427 C   0  0  0  0  0  0  0  0  0  0  0  0
   -3.8388   -2.1693   32.1769 N   0  0  0  0  0  0  0  0  0  0  0  0
   -1.4419   -2.4326   30.7454 C   0  0  0  0  0  0  0  0  0  0  0  0
    0.0316   -2.3804   30.1892 C   0  0  0  0  0  0  0  0  0  0  0  0
    2.9569   -1.0721   26.3630 N   0  0  0  0  0  0  0  0  0  0  0  0
    3.9778   -0.4718   25.4394 C   0  0  0  0  0  0  0  0  0  0  0  0
    4.6633   -1.4559   24.4297 C   0  0  0  0  0  0  0  0  0  0  0  0
    5.6401   -0.8988   23.4001 C   0  0  0  0  0  0  0  0  0  0  0  0
    6.9313   -1.1893   23.3476 N   0  0  0  0  0  0  0  0  0  0  0  0
    7.5541   -0.7214   22.1988 N   0  0  0  0  0  0  0  0  0  0  0  0
    6.7134   -0.0830   21.4183 C   0  0  0  0  0  0  0  0  0  0  0  0
    5.1066   -0.0073   22.0172 S   0  0  0  0  0  0  0  0  0  0  0  0
    1.8616   -2.4297   28.3964 H   0  0  0  0  0  0  0  0  0  0  0  0
    0.5143   -1.8841   27.3841 H   0  0  0  0  0  0  0  0  0  0  0  0
   -0.4401    0.5996   28.7041 H   0  0  0  0  0  0  0  0  0  0  0  0
   -1.4244   -0.8438   28.4754 H   0  0  0  0  0  0  0  0  0  0  0  0
   -0.9536    0.7250   31.0752 H   0  0  0  0  0  0  0  0  0  0  0  0
   -2.4686    0.5259   30.1722 H   0  0  0  0  0  0  0  0  0  0  0  0
   -2.6221    0.8766   32.8777 H   0  0  0  0  0  0  0  0  0  0  0  0
   -4.7028    1.0175   34.2159 H   0  0  0  0  0  0  0  0  0  0  0  0
   -6.2478   -0.9537   34.2597 H   0  0  0  0  0  0  0  0  0  0  0  0
   -5.5533   -2.9646   32.9338 H   0  0  0  0  0  0  0  0  0  0  0  0
   -1.4906   -3.2356   31.4910 H   0  0  0  0  0  0  0  0  0  0  0  0
   -2.1172   -2.6923   29.9222 H   0  0  0  0  0  0  0  0  0  0  0  0
    0.1779   -3.3008   29.6096 H   0  0  0  0  0  0  0  0  0  0  0  0
    0.7148   -2.4400   31.0453 H   0  0  0  0  0  0  0  0  0  0  0  0
    2.5361   -1.9713   26.1248 H   0  0  0  0  0  0  0  0  0  0  0  0
    4.7312    0.0101   26.0720 H   0  0  0  0  0  0  0  0  0  0  0  0
    3.4635    0.3280   24.8965 H   0  0  0  0  0  0  0  0  0  0  0  0
    5.1912   -2.2192   25.0164 H   0  0  0  0  0  0  0  0  0  0  0  0
    3.8740   -1.9961   23.8904 H   0  0  0  0  0  0  0  0  0  0  0  0
    7.0088    0.3596   20.4783 H   0  0  0  0  0  0  0  0  0  0  0  0
  1  2  2  0
  2  3  1  0
  3  4  1  0
  4  5  1  0
  5  6  1  0
  6  7  1  0
  7  8  1  0
  8  9  2  0
  9 10  1  0
 10 11  2  0
 11 12  1  0
 12 13  2  0
  7 14  1  0
 14 15  1  0
  2 16  1  0
 16 17  1  0
 17 18  1  0
 18 19  1  0
 19 20  2  0
 20 21  1  0
 21 22  2  0
 22 23  1  0
 15  4  1  0
 23 19  1  0
 13  8  1  0
  3 24  1  0
  3 25  1  0
  5 26  1  0
  5 27  1  0
  6 28  1  0
  6 29  1  0
  9 30  1  0
 10 31  1  0
 11 32  1  0
 12 33  1  0
 14 34  1  0
 14 35  1  0
 15 36  1  0
 15 37  1  0
 16 38  1  0
 17 39  1  0
 17 40  1  0
 18 41  1  0
 18 42  1  0
 22 43  1  0
M  END
>  <Energy>  (1362) 
113.66785836607036

>  <compound_id>  (1362) 
41248

>  <target_id>  (1362) 
1

>  <reference_id>  (1362) 
7

>  <inspiration_ids>  (1362) 
[97, 7]

>  <energy_score>  (1362) 
-57.78631363747829

>  <distance_score>  (1362) 
13.714510319736508

>  <path>  (1362) 
/opt/xchem-fragalysis-2/maxwin/BulkDock/SCRATCH/511024/C41248-P7/C41248-P7.minimised.mol

>  <scratch_subdir>  (1362) 
/opt/xchem-fragalysis-2/maxwin/BulkDock/SCRATCH/511024/C41248-P7

>  <fragmenstein_runtime>  (1362) 
13.953812837600708

>  <fragmenstein_outcome>  (1362) 
too moved

>  <fragmenstein_mode>  (1362) 
expansion

>  <fragmenstein_error>  (1362) 


$$$$
C41250-P97
     RDKit          3D

 41 43  0  0  0  0  0  0  0  0999 V2000
    5.2411    1.3288   25.1189 O   0  0  0  0  0  0  0  0  0  0  0  0
    5.2618    0.1294   25.0620 C   0  0  0  0  0  0  0  0  0  0  0  0
    6.3346   -0.5467   24.1264 C   0  0  0  0  0  0  0  0  0  0  0  0
    6.1896   -0.2073   22.6535 C   0  0  0  0  0  0  0  0  0  0  0  0
    5.7645   -1.0153   21.6703 C   0  0  0  0  0  0  0  0  0  0  0  0
    5.4466   -0.2883   20.4063 C   0  0  0  0  0  0  0  0  0  0  0  0
    5.6505    1.1719   20.7953 C   0  0  0  0  0  0  0  0  0  0  0  0
    6.4096    1.1777   22.1274 C   0  0  0  0  0  0  0  0  0  0  0  0
    4.3984   -0.8591   25.6712 N   0  0  0  0  0  0  0  0  0  0  0  0
    3.1810   -0.7093   26.4614 C   0  0  0  0  0  0  0  0  0  0  0  0
    3.2605   -1.0790   27.9408 C   0  0  0  0  0  0  0  0  0  0  0  0
    1.8690   -1.4444   28.5730 C   0  0  0  0  0  0  0  0  0  0  0  0
    1.0524   -0.7016   29.3318 N   0  0  0  0  0  0  0  0  0  0  0  0
   -0.0825   -1.4605   29.7816 C   0  0  0  0  0  0  0  0  0  0  0  0
   -1.1983   -0.9810   30.6715 C   0  0  0  0  0  0  0  0  0  0  0  0
   -1.3768    0.3700   30.9519 C   0  0  0  0  0  0  0  0  0  0  0  0
   -2.4278    0.7740   31.7902 C   0  0  0  0  0  0  0  0  0  0  0  0
   -3.2749   -0.1745   32.3467 C   0  0  0  0  0  0  0  0  0  0  0  0
   -3.0416   -1.4983   32.0299 C   0  0  0  0  0  0  0  0  0  0  0  0
   -2.0449   -1.9243   31.2068 N   0  0  0  0  0  0  0  0  0  0  0  0
   -0.0734   -2.7590   29.3116 C   0  0  0  0  0  0  0  0  0  0  0  0
    1.3177   -3.0716   28.3759 S   0  0  0  0  0  0  0  0  0  0  0  0
    7.3199   -0.2172   24.4781 H   0  0  0  0  0  0  0  0  0  0  0  0
    6.3199   -1.6337   24.2530 H   0  0  0  0  0  0  0  0  0  0  0  0
    5.4955   -2.0485   21.7978 H   0  0  0  0  0  0  0  0  0  0  0  0
    4.4093   -0.4575   20.1041 H   0  0  0  0  0  0  0  0  0  0  0  0
    6.0726   -0.6097   19.5774 H   0  0  0  0  0  0  0  0  0  0  0  0
    4.6694    1.6448   20.9400 H   0  0  0  0  0  0  0  0  0  0  0  0
    6.1530    1.7536   20.0185 H   0  0  0  0  0  0  0  0  0  0  0  0
    6.0071    1.9549   22.7816 H   0  0  0  0  0  0  0  0  0  0  0  0
    7.4794    1.3593   21.9921 H   0  0  0  0  0  0  0  0  0  0  0  0
    4.6630   -1.7822   25.3364 H   0  0  0  0  0  0  0  0  0  0  0  0
    2.4571   -1.3540   25.9713 H   0  0  0  0  0  0  0  0  0  0  0  0
    2.8426    0.3272   26.3624 H   0  0  0  0  0  0  0  0  0  0  0  0
    3.9383   -1.9302   28.0842 H   0  0  0  0  0  0  0  0  0  0  0  0
    3.6834   -0.2441   28.5122 H   0  0  0  0  0  0  0  0  0  0  0  0
   -0.7031    1.1064   30.5223 H   0  0  0  0  0  0  0  0  0  0  0  0
   -2.5683    1.8299   32.0061 H   0  0  0  0  0  0  0  0  0  0  0  0
   -4.0891    0.1118   33.0018 H   0  0  0  0  0  0  0  0  0  0  0  0
   -3.6716   -2.2756   32.4467 H   0  0  0  0  0  0  0  0  0  0  0  0
   -0.8072   -3.5333   29.4815 H   0  0  0  0  0  0  0  0  0  0  0  0
  1  2  2  0
  2  3  1  0
  3  4  1  0
  4  5  2  0
  5  6  1  0
  6  7  1  0
  7  8  1  0
  2  9  1  0
  9 10  1  0
 10 11  1  0
 11 12  1  0
 12 13  2  0
 13 14  1  0
 14 15  1  0
 15 16  2  0
 16 17  1  0
 17 18  2  0
 18 19  1  0
 19 20  2  0
 14 21  2  0
 21 22  1  0
  8  4  1  0
 22 12  1  0
 20 15  1  0
  3 23  1  0
  3 24  1  0
  5 25  1  0
  6 26  1  0
  6 27  1  0
  7 28  1  0
  7 29  1  0
  8 30  1  0
  8 31  1  0
  9 32  1  0
 10 33  1  0
 10 34  1  0
 11 35  1  0
 11 36  1  0
 16 37  1  0
 17 38  1  0
 18 39  1  0
 19 40  1  0
 21 41  1  0
M  END
>  <Energy>  (1363) 
69.260452325083463

>  <compound_id>  (1363) 
41250

>  <target_id>  (1363) 
1

>  <reference_id>  (1363) 
97

>  <inspiration_ids>  (1363) 
[97, 7]

>  <energy_score>  (1363) 
-77.49950174788307

>  <distance_score>  (1363) 
12.901253099201575

>  <path>  (1363) 
/opt/xchem-fragalysis-2/maxwin/BulkDock/SCRATCH/511024/C41250-P97/C41250-P97.minimised.mol

>  <scratch_subdir>  (1363) 
/opt/xchem-fragalysis-2/maxwin/BulkDock/SCRATCH/511024/C41250-P97

>  <fragmenstein_runtime>  (1363) 
12.885570526123047

>  <fragmenstein_outcome>  (1363) 
too moved

>  <fragmenstein_mode>  (1363) 
expansion

>  <fragmenstein_error>  (1363) 


$$$$
C41250-P7
     RDKit          3D

 41 43  0  0  0  0  0  0  0  0999 V2000
    5.2601    0.9630   25.5751 O   0  0  0  0  0  0  0  0  0  0  0  0
    5.3735   -0.2315   25.5783 C   0  0  0  0  0  0  0  0  0  0  0  0
    6.3788   -0.9193   24.5747 C   0  0  0  0  0  0  0  0  0  0  0  0
    6.5173   -0.3707   23.1730 C   0  0  0  0  0  0  0  0  0  0  0  0
    6.2155   -1.0110   22.0315 C   0  0  0  0  0  0  0  0  0  0  0  0
    6.3950   -0.1507   20.8289 C   0  0  0  0  0  0  0  0  0  0  0  0
    6.5366    1.2334   21.4468 C   0  0  0  0  0  0  0  0  0  0  0  0
    7.0370    1.0025   22.8755 C   0  0  0  0  0  0  0  0  0  0  0  0
    4.7850   -1.2374   26.4493 N   0  0  0  0  0  0  0  0  0  0  0  0
    3.9517   -1.1021   27.6473 C   0  0  0  0  0  0  0  0  0  0  0  0
    2.4919   -1.4935   27.4027 C   0  0  0  0  0  0  0  0  0  0  0  0
    1.6326   -1.8186   28.6637 C   0  0  0  0  0  0  0  0  0  0  0  0
    0.5789   -1.1507   29.1496 N   0  0  0  0  0  0  0  0  0  0  0  0
   -0.0788   -1.8846   30.1857 C   0  0  0  0  0  0  0  0  0  0  0  0
   -1.2996   -1.4521   30.9516 C   0  0  0  0  0  0  0  0  0  0  0  0
   -1.7429   -0.1328   30.9197 C   0  0  0  0  0  0  0  0  0  0  0  0
   -2.8092    0.2614   31.7421 C   0  0  0  0  0  0  0  0  0  0  0  0
   -3.4209   -0.6660   32.5763 C   0  0  0  0  0  0  0  0  0  0  0  0
   -2.9482   -1.9634   32.5417 C   0  0  0  0  0  0  0  0  0  0  0  0
   -1.9222   -2.3829   31.7518 N   0  0  0  0  0  0  0  0  0  0  0  0
    0.5539   -3.0789   30.4747 C   0  0  0  0  0  0  0  0  0  0  0  0
    1.9368   -3.3076   29.4926 S   0  0  0  0  0  0  0  0  0  0  0  0
    6.1096   -1.9736   24.4765 H   0  0  0  0  0  0  0  0  0  0  0  0
    7.3624   -0.8934   25.0602 H   0  0  0  0  0  0  0  0  0  0  0  0
    5.8144   -2.0105   21.9704 H   0  0  0  0  0  0  0  0  0  0  0  0
    7.2896   -0.4517   20.2882 H   0  0  0  0  0  0  0  0  0  0  0  0
    5.5341   -0.1996   20.1563 H   0  0  0  0  0  0  0  0  0  0  0  0
    7.1812    1.9018   20.8723 H   0  0  0  0  0  0  0  0  0  0  0  0
    5.5489    1.7142   21.4854 H   0  0  0  0  0  0  0  0  0  0  0  0
    8.1301    1.0154   22.9327 H   0  0  0  0  0  0  0  0  0  0  0  0
    6.6374    1.7680   23.5451 H   0  0  0  0  0  0  0  0  0  0  0  0
    5.1709   -2.1538   26.2099 H   0  0  0  0  0  0  0  0  0  0  0  0
    4.4099   -1.7405   28.4093 H   0  0  0  0  0  0  0  0  0  0  0  0
    4.0126   -0.0652   27.9941 H   0  0  0  0  0  0  0  0  0  0  0  0
    1.9941   -0.6775   26.8757 H   0  0  0  0  0  0  0  0  0  0  0  0
    2.4624   -2.3748   26.7549 H   0  0  0  0  0  0  0  0  0  0  0  0
   -1.2443    0.5919   30.2816 H   0  0  0  0  0  0  0  0  0  0  0  0
   -3.1487    1.2940   31.7262 H   0  0  0  0  0  0  0  0  0  0  0  0
   -4.2408   -0.3817   33.2255 H   0  0  0  0  0  0  0  0  0  0  0  0
   -3.3820   -2.7224   33.1849 H   0  0  0  0  0  0  0  0  0  0  0  0
    0.2796   -3.8153   31.2162 H   0  0  0  0  0  0  0  0  0  0  0  0
  1  2  2  0
  2  3  1  0
  3  4  1  0
  4  5  2  0
  5  6  1  0
  6  7  1  0
  7  8  1  0
  2  9  1  0
  9 10  1  0
 10 11  1  0
 11 12  1  0
 12 13  2  0
 13 14  1  0
 14 15  1  0
 15 16  2  0
 16 17  1  0
 17 18  2  0
 18 19  1  0
 19 20  2  0
 14 21  2  0
 21 22  1  0
  8  4  1  0
 22 12  1  0
 20 15  1  0
  3 23  1  0
  3 24  1  0
  5 25  1  0
  6 26  1  0
  6 27  1  0
  7 28  1  0
  7 29  1  0
  8 30  1  0
  8 31  1  0
  9 32  1  0
 10 33  1  0
 10 34  1  0
 11 35  1  0
 11 36  1  0
 16 37  1  0
 17 38  1  0
 18 39  1  0
 19 40  1  0
 21 41  1  0
M  END
>  <Energy>  (1364) 
68.635713430680255

>  <compound_id>  (1364) 
41250

>  <target_id>  (1364) 
1

>  <reference_id>  (1364) 
7

>  <inspiration_ids>  (1364) 
[97, 7]

>  <energy_score>  (1364) 
-78.12424064228668

>  <distance_score>  (1364) 
12.849688133670156

>  <path>  (1364) 
/opt/xchem-fragalysis-2/maxwin/BulkDock/SCRATCH/511024/C41250-P7/C41250-P7.minimised.mol

>  <scratch_subdir>  (1364) 
/opt/xchem-fragalysis-2/maxwin/BulkDock/SCRATCH/511024/C41250-P7

>  <fragmenstein_runtime>  (1364) 
15.706642389297485

>  <fragmenstein_outcome>  (1364) 
too moved

>  <fragmenstein_mode>  (1364) 
expansion

>  <fragmenstein_error>  (1364) 


$$$$
C81114-P97
     RDKit          3D

 40 41  0  0  0  0  0  0  0  0999 V2000
   -2.3355   -1.8427   31.1980 C   0  0  0  0  0  0  0  0  0  0  0  0
   -1.2318   -2.5108   30.5784 O   0  0  0  0  0  0  0  0  0  0  0  0
   -0.2317   -1.5936   30.0394 C   0  0  0  0  0  0  0  0  0  0  0  0
    0.9483   -2.3267   29.2474 C   0  0  0  0  0  0  0  0  0  0  0  0
    2.2340   -1.4483   28.8059 C   0  0  0  0  0  0  0  0  0  0  0  0
    2.8701   -1.6107   27.3981 C   0  0  0  0  0  0  0  0  0  0  0  0
    4.3487   -1.6132   27.3775 N   0  0  0  0  0  0  0  0  0  0  0  0
    5.3017   -0.5782   26.9921 C   0  0  0  0  0  0  0  0  0  0  0  0
    5.1271    0.5663   26.6692 O   0  0  0  0  0  0  0  0  0  0  0  0
    6.7978   -1.0987   27.1487 C   0  0  0  0  0  0  0  0  0  0  0  0
    7.8425   -1.0325   26.0360 C   0  0  0  0  0  0  0  0  0  0  0  0
    8.5983    0.0174   25.6644 C   0  0  0  0  0  0  0  0  0  0  0  0
    9.6618   -0.3547   24.6716 C   0  0  0  0  0  0  0  0  0  0  0  0
    9.7330   -1.8608   24.8733 C   0  0  0  0  0  0  0  0  0  0  0  0
    8.3261   -2.2647   25.3148 C   0  0  0  0  0  0  0  0  0  0  0  0
    0.5566   -3.5624   28.4635 C   0  0  0  0  0  0  0  0  0  0  0  0
    1.3074   -3.7183   29.7471 C   0  0  0  0  0  0  0  0  0  0  0  0
   -1.9802   -1.2137   32.0192 H   0  0  0  0  0  0  0  0  0  0  0  0
   -3.0155   -2.5995   31.5966 H   0  0  0  0  0  0  0  0  0  0  0  0
   -2.8681   -1.2376   30.4590 H   0  0  0  0  0  0  0  0  0  0  0  0
    0.2116   -1.0350   30.8705 H   0  0  0  0  0  0  0  0  0  0  0  0
   -0.7194   -0.9020   29.3439 H   0  0  0  0  0  0  0  0  0  0  0  0
    2.9983   -1.6268   29.5735 H   0  0  0  0  0  0  0  0  0  0  0  0
    1.9408   -0.3969   28.9203 H   0  0  0  0  0  0  0  0  0  0  0  0
    2.5383   -0.7888   26.7559 H   0  0  0  0  0  0  0  0  0  0  0  0
    2.5773   -2.5445   26.9235 H   0  0  0  0  0  0  0  0  0  0  0  0
    4.8444   -2.4893   27.5049 H   0  0  0  0  0  0  0  0  0  0  0  0
    6.7995   -2.1129   27.5626 H   0  0  0  0  0  0  0  0  0  0  0  0
    7.1897   -0.4918   27.9799 H   0  0  0  0  0  0  0  0  0  0  0  0
    8.4818    1.0186   26.0587 H   0  0  0  0  0  0  0  0  0  0  0  0
    9.3659   -0.0768   23.6571 H   0  0  0  0  0  0  0  0  0  0  0  0
   10.6192    0.1184   24.9075 H   0  0  0  0  0  0  0  0  0  0  0  0
   10.4408   -2.0820   25.6854 H   0  0  0  0  0  0  0  0  0  0  0  0
   10.0894   -2.4174   24.0083 H   0  0  0  0  0  0  0  0  0  0  0  0
    8.3829   -3.1349   25.9743 H   0  0  0  0  0  0  0  0  0  0  0  0
    7.6816   -2.4892   24.4589 H   0  0  0  0  0  0  0  0  0  0  0  0
   -0.4913   -3.8461   28.4469 H   0  0  0  0  0  0  0  0  0  0  0  0
    1.0718   -3.8088   27.5501 H   0  0  0  0  0  0  0  0  0  0  0  0
    2.3431   -4.0338   29.6969 H   0  0  0  0  0  0  0  0  0  0  0  0
    0.7741   -4.1173   30.6028 H   0  0  0  0  0  0  0  0  0  0  0  0
  1  2  1  0
  2  3  1  0
  3  4  1  0
  4  5  1  0
  5  6  1  0
  6  7  1  0
  7  8  1  0
  8  9  2  0
  8 10  1  0
 10 11  1  0
 11 12  2  0
 12 13  1  0
 13 14  1  0
 14 15  1  0
  4 16  1  0
 16 17  1  0
 17  4  1  0
 15 11  1  0
  1 18  1  0
  1 19  1  0
  1 20  1  0
  3 21  1  0
  3 22  1  0
  5 23  1  0
  5 24  1  0
  6 25  1  0
  6 26  1  0
  7 27  1  0
 10 28  1  0
 10 29  1  0
 12 30  1  0
 13 31  1  0
 13 32  1  0
 14 33  1  0
 14 34  1  0
 15 35  1  0
 15 36  1  0
 16 37  1  0
 16 38  1  0
 17 39  1  0
 17 40  1  0
M  END
>  <Energy>  (1365) 
72.914776608763134

>  <compound_id>  (1365) 
81114

>  <target_id>  (1365) 
1

>  <reference_id>  (1365) 
97

>  <inspiration_ids>  (1365) 
[97, 7]

>  <energy_score>  (1365) 
-1.9332595675262496

>  <distance_score>  (1365) 
14.524423967843466

>  <path>  (1365) 
/opt/xchem-fragalysis-2/maxwin/BulkDock/SCRATCH/511024/C81114-P97/C81114-P97.minimised.mol

>  <scratch_subdir>  (1365) 
/opt/xchem-fragalysis-2/maxwin/BulkDock/SCRATCH/511024/C81114-P97

>  <fragmenstein_runtime>  (1365) 
12.184570074081421

>  <fragmenstein_outcome>  (1365) 
too moved

>  <fragmenstein_mode>  (1365) 
expansion

>  <fragmenstein_error>  (1365) 


$$$$
C81114-P7
     RDKit          3D

 40 41  0  0  0  0  0  0  0  0999 V2000
   -0.9548   -8.9685   23.8498 C   0  0  0  0  0  0  0  0  0  0  0  0
    0.1443   -9.4102   23.0500 O   0  0  0  0  0  0  0  0  0  0  0  0
    0.2447   -8.7230   21.7732 C   0  0  0  0  0  0  0  0  0  0  0  0
    1.4261   -9.2832   20.8126 C   0  0  0  0  0  0  0  0  0  0  0  0
    1.8007   -8.4163   19.4728 C   0  0  0  0  0  0  0  0  0  0  0  0
    3.1068   -8.7889   18.6514 C   0  0  0  0  0  0  0  0  0  0  0  0
    3.8364   -7.6985   17.9288 N   0  0  0  0  0  0  0  0  0  0  0  0
    5.2870   -7.3783   17.8622 C   0  0  0  0  0  0  0  0  0  0  0  0
    6.2184   -7.8672   18.4349 O   0  0  0  0  0  0  0  0  0  0  0  0
    5.5508   -6.1845   16.7758 C   0  0  0  0  0  0  0  0  0  0  0  0
    6.8484   -5.3201   15.8561 C   0  0  0  0  0  0  0  0  0  0  0  0
    7.9983   -4.0964   15.7978 C   0  0  0  0  0  0  0  0  0  0  0  0
    7.9011   -2.5546   15.1878 C   0  0  0  0  0  0  0  0  0  0  0  0
    6.5198   -2.3371   14.8080 C   0  0  0  0  0  0  0  0  0  0  0  0
    5.8385   -3.5956   15.3332 C   0  0  0  0  0  0  0  0  0  0  0  0
    1.4626  -10.7899   20.6417 C   0  0  0  0  0  0  0  0  0  0  0  0
    2.4990  -10.1193   21.4933 C   0  0  0  0  0  0  0  0  0  0  0  0
   -0.8165   -7.9213   24.1239 H   0  0  0  0  0  0  0  0  0  0  0  0
   -0.9813   -9.5738   24.7593 H   0  0  0  0  0  0  0  0  0  0  0  0
   -1.8674   -9.1389   23.2771 H   0  0  0  0  0  0  0  0  0  0  0  0
    0.4675   -7.6787   21.9724 H   0  0  0  0  0  0  0  0  0  0  0  0
   -0.6976   -8.8349   21.2296 H   0  0  0  0  0  0  0  0  0  0  0  0
    1.7946   -7.3556   19.7381 H   0  0  0  0  0  0  0  0  0  0  0  0
    0.9430   -8.5405   18.7984 H   0  0  0  0  0  0  0  0  0  0  0  0
    2.8267   -9.5143   17.8790 H   0  0  0  0  0  0  0  0  0  0  0  0
    3.8563   -9.2812   19.2729 H   0  0  0  0  0  0  0  0  0  0  0  0
    3.3400   -7.1385   17.2450 H   0  0  0  0  0  0  0  0  0  0  0  0
    4.7987   -5.4432   17.0690 H   0  0  0  0  0  0  0  0  0  0  0  0
    5.1283   -6.7629   15.9317 H   0  0  0  0  0  0  0  0  0  0  0  0
    8.9221   -4.2290   15.1895 H   0  0  0  0  0  0  0  0  0  0  0  0
    8.5592   -2.4664   14.3340 H   0  0  0  0  0  0  0  0  0  0  0  0
    8.2482   -1.7601   15.8544 H   0  0  0  0  0  0  0  0  0  0  0  0
    6.1169   -1.4386   15.2844 H   0  0  0  0  0  0  0  0  0  0  0  0
    6.3969   -2.1940   13.7323 H   0  0  0  0  0  0  0  0  0  0  0  0
    4.8930   -3.3075   14.8094 H   0  0  0  0  0  0  0  0  0  0  0  0
    4.9063   -3.6967   16.0165 H   0  0  0  0  0  0  0  0  0  0  0  0
    0.7082  -11.3846   21.1469 H   0  0  0  0  0  0  0  0  0  0  0  0
    1.7794  -11.2084   19.6939 H   0  0  0  0  0  0  0  0  0  0  0  0
    2.4401  -10.2614   22.5686 H   0  0  0  0  0  0  0  0  0  0  0  0
    3.5226  -10.1096   21.1457 H   0  0  0  0  0  0  0  0  0  0  0  0
  1  2  1  0
  2  3  1  0
  3  4  1  0
  4  5  1  0
  5  6  1  0
  6  7  1  0
  7  8  1  0
  8  9  2  0
  8 10  1  0
 10 11  1  0
 11 12  2  0
 12 13  1  0
 13 14  1  0
 14 15  1  0
  4 16  1  0
 16 17  1  0
 17  4  1  0
 15 11  1  0
  1 18  1  0
  1 19  1  0
  1 20  1  0
  3 21  1  0
  3 22  1  0
  5 23  1  0
  5 24  1  0
  6 25  1  0
  6 26  1  0
  7 27  1  0
 10 28  1  0
 10 29  1  0
 12 30  1  0
 13 31  1  0
 13 32  1  0
 14 33  1  0
 14 34  1  0
 15 35  1  0
 15 36  1  0
 16 37  1  0
 16 38  1  0
 17 39  1  0
 17 40  1  0
M  END
>  <Energy>  (1366) 
379.75800046358819

>  <compound_id>  (1366) 
81114

>  <target_id>  (1366) 
1

>  <reference_id>  (1366) 
7

>  <inspiration_ids>  (1366) 
[97, 7]

>  <energy_score>  (1366) 
304.9099642873036

>  <distance_score>  (1366) 
13.431510706722039

>  <path>  (1366) 
/opt/xchem-fragalysis-2/maxwin/BulkDock/SCRATCH/511024/C81114-P7/C81114-P7.minimised.mol

>  <scratch_subdir>  (1366) 
/opt/xchem-fragalysis-2/maxwin/BulkDock/SCRATCH/511024/C81114-P7

>  <fragmenstein_runtime>  (1366) 
10.70536208152771

>  <fragmenstein_outcome>  (1366) 
too moved

>  <fragmenstein_mode>  (1366) 
expansion

>  <fragmenstein_error>  (1366) 


$$$$
C81121-P97
     RDKit          3D

 45 46  0  0  0  0  0  0  0  0999 V2000
   -3.7701   -1.9199   31.4368 C   0  0  0  0  0  0  0  0  0  0  0  0
   -2.5284   -2.5517   31.1078 O   0  0  0  0  0  0  0  0  0  0  0  0
   -1.8634   -1.9444   29.9638 C   0  0  0  0  0  0  0  0  0  0  0  0
   -0.3471   -2.3908   29.7996 C   0  0  0  0  0  0  0  0  0  0  0  0
    0.4103   -1.9362   28.4565 C   0  0  0  0  0  0  0  0  0  0  0  0
    1.9484   -1.8054   28.5294 C   0  0  0  0  0  0  0  0  0  0  0  0
    2.6159   -1.4261   27.2819 N   0  0  0  0  0  0  0  0  0  0  0  0
    3.8977   -0.7749   27.0456 C   0  0  0  0  0  0  0  0  0  0  0  0
    4.6934   -0.3138   27.8144 O   0  0  0  0  0  0  0  0  0  0  0  0
    4.1720   -0.6800   25.5247 C   0  0  0  0  0  0  0  0  0  0  0  0
    5.4120    0.1720   25.0609 C   0  0  0  0  0  0  0  0  0  0  0  0
    5.2308    0.6347   23.5962 C   0  0  0  0  0  0  0  0  0  0  0  0
    5.5428   -0.4835   22.6255 C   0  0  0  0  0  0  0  0  0  0  0  0
    7.2656   -0.8509   22.6195 S   0  0  0  0  0  0  0  0  0  0  0  0
    7.8593   -0.0476   21.5718 O   0  0  0  0  0  0  0  0  0  0  0  0
    7.4644   -2.2855   22.5848 O   0  0  0  0  0  0  0  0  0  0  0  0
    7.8199   -0.2425   24.1992 C   0  0  0  0  0  0  0  0  0  0  0  0
    6.7695   -0.5504   25.2632 C   0  0  0  0  0  0  0  0  0  0  0  0
    0.4481   -2.5510   31.0854 C   0  0  0  0  0  0  0  0  0  0  0  0
    0.0220   -3.7693   30.3203 C   0  0  0  0  0  0  0  0  0  0  0  0
   -4.4265   -1.8818   30.5630 H   0  0  0  0  0  0  0  0  0  0  0  0
   -3.5816   -0.9081   31.8067 H   0  0  0  0  0  0  0  0  0  0  0  0
   -4.2535   -2.5021   32.2253 H   0  0  0  0  0  0  0  0  0  0  0  0
   -2.4091   -2.2207   29.0567 H   0  0  0  0  0  0  0  0  0  0  0  0
   -1.8730   -0.8546   30.0773 H   0  0  0  0  0  0  0  0  0  0  0  0
    0.1426   -2.6672   27.6897 H   0  0  0  0  0  0  0  0  0  0  0  0
   -0.0144   -0.9730   28.1503 H   0  0  0  0  0  0  0  0  0  0  0  0
    2.2344   -1.0632   29.2821 H   0  0  0  0  0  0  0  0  0  0  0  0
    2.3954   -2.7588   28.8298 H   0  0  0  0  0  0  0  0  0  0  0  0
    2.2467   -1.7694   26.3930 H   0  0  0  0  0  0  0  0  0  0  0  0
    4.2349   -1.6960   25.1217 H   0  0  0  0  0  0  0  0  0  0  0  0
    3.2799   -0.2104   25.1015 H   0  0  0  0  0  0  0  0  0  0  0  0
    5.4267    1.0835   25.6738 H   0  0  0  0  0  0  0  0  0  0  0  0
    5.8760    1.5000   23.3988 H   0  0  0  0  0  0  0  0  0  0  0  0
    4.2069    0.9912   23.4476 H   0  0  0  0  0  0  0  0  0  0  0  0
    5.0242   -1.3912   22.9238 H   0  0  0  0  0  0  0  0  0  0  0  0
    5.2652   -0.2051   21.6069 H   0  0  0  0  0  0  0  0  0  0  0  0
    8.0053    0.8321   24.1151 H   0  0  0  0  0  0  0  0  0  0  0  0
    8.7664   -0.7425   24.4253 H   0  0  0  0  0  0  0  0  0  0  0  0
    7.1655   -0.2859   26.2508 H   0  0  0  0  0  0  0  0  0  0  0  0
    6.6116   -1.6295   25.2771 H   0  0  0  0  0  0  0  0  0  0  0  0
    1.5044   -2.3189   31.1185 H   0  0  0  0  0  0  0  0  0  0  0  0
   -0.0512   -2.3548   32.0299 H   0  0  0  0  0  0  0  0  0  0  0  0
   -0.7509   -4.3907   30.7600 H   0  0  0  0  0  0  0  0  0  0  0  0
    0.7856   -4.3427   29.8083 H   0  0  0  0  0  0  0  0  0  0  0  0
  1  2  1  0
  2  3  1  0
  3  4  1  0
  4  5  1  0
  5  6  1  0
  6  7  1  0
  7  8  1  0
  8  9  2  0
  8 10  1  0
 10 11  1  0
 11 12  1  0
 12 13  1  0
 13 14  1  0
 14 15  2  0
 14 16  2  0
 14 17  1  0
 17 18  1  0
  4 19  1  0
 19 20  1  0
 20  4  1  0
 18 11  1  0
  1 21  1  0
  1 22  1  0
  1 23  1  0
  3 24  1  0
  3 25  1  0
  5 26  1  0
  5 27  1  0
  6 28  1  0
  6 29  1  0
  7 30  1  0
 10 31  1  0
 10 32  1  0
 11 33  1  0
 12 34  1  0
 12 35  1  0
 13 36  1  0
 13 37  1  0
 17 38  1  0
 17 39  1  0
 18 40  1  0
 18 41  1  0
 19 42  1  0
 19 43  1  0
 20 44  1  0
 20 45  1  0
M  END
>  <Energy>  (1367) 
45.637268094391082

>  <compound_id>  (1367) 
81121

>  <target_id>  (1367) 
1

>  <reference_id>  (1367) 
97

>  <inspiration_ids>  (1367) 
[97, 7]

>  <energy_score>  (1367) 
-31.85323702640835

>  <distance_score>  (1367) 
14.512203185764989

>  <path>  (1367) 
/opt/xchem-fragalysis-2/maxwin/BulkDock/SCRATCH/511024/C81121-P97/C81121-P97.minimised.mol

>  <scratch_subdir>  (1367) 
/opt/xchem-fragalysis-2/maxwin/BulkDock/SCRATCH/511024/C81121-P97

>  <fragmenstein_runtime>  (1367) 
22.728360414505005

>  <fragmenstein_outcome>  (1367) 
too moved

>  <fragmenstein_mode>  (1367) 
expansion

>  <fragmenstein_error>  (1367) 


$$$$
C81121-P7
     RDKit          3D

 45 46  0  0  0  0  0  0  0  0999 V2000
   -1.2754   -1.5848   29.4565 C   0  0  0  0  0  0  0  0  0  0  0  0
    0.0059   -0.9368   29.4540 O   0  0  0  0  0  0  0  0  0  0  0  0
    0.7423   -1.1323   28.2034 C   0  0  0  0  0  0  0  0  0  0  0  0
    2.1010   -0.2767   28.0993 C   0  0  0  0  0  0  0  0  0  0  0  0
    3.1392   -0.5812   26.8680 C   0  0  0  0  0  0  0  0  0  0  0  0
    3.8293    0.6721   26.2200 C   0  0  0  0  0  0  0  0  0  0  0  0
    4.6893    0.4308   25.0448 N   0  0  0  0  0  0  0  0  0  0  0  0
    5.2008    1.3525   24.0214 C   0  0  0  0  0  0  0  0  0  0  0  0
    5.1124    2.5482   23.9297 O   0  0  0  0  0  0  0  0  0  0  0  0
    6.0615    0.6045   22.9263 C   0  0  0  0  0  0  0  0  0  0  0  0
    5.8186    0.9754   21.3991 C   0  0  0  0  0  0  0  0  0  0  0  0
    6.1927   -0.2148   20.4947 C   0  0  0  0  0  0  0  0  0  0  0  0
    5.5894   -0.0409   19.1049 C   0  0  0  0  0  0  0  0  0  0  0  0
    6.3989    1.1887   18.1507 S   0  0  0  0  0  0  0  0  0  0  0  0
    5.4868    1.5834   17.0979 O   0  0  0  0  0  0  0  0  0  0  0  0
    7.6876    0.6685   17.7355 O   0  0  0  0  0  0  0  0  0  0  0  0
    6.5025    2.5352   19.3465 C   0  0  0  0  0  0  0  0  0  0  0  0
    6.5901    2.2053   20.8641 C   0  0  0  0  0  0  0  0  0  0  0  0
    2.0331    1.1324   28.6688 C   0  0  0  0  0  0  0  0  0  0  0  0
    2.7823    0.0696   29.4123 C   0  0  0  0  0  0  0  0  0  0  0  0
   -1.7495   -1.4024   30.4239 H   0  0  0  0  0  0  0  0  0  0  0  0
   -1.9053   -1.1703   28.6643 H   0  0  0  0  0  0  0  0  0  0  0  0
   -1.1478   -2.6619   29.3161 H   0  0  0  0  0  0  0  0  0  0  0  0
    0.9928   -2.1931   28.1036 H   0  0  0  0  0  0  0  0  0  0  0  0
    0.1006   -0.8081   27.3822 H   0  0  0  0  0  0  0  0  0  0  0  0
    3.9127   -1.2535   27.2597 H   0  0  0  0  0  0  0  0  0  0  0  0
    2.6061   -1.1498   26.1068 H   0  0  0  0  0  0  0  0  0  0  0  0
    4.4635    1.1701   26.9610 H   0  0  0  0  0  0  0  0  0  0  0  0
    3.0707    1.3974   25.9070 H   0  0  0  0  0  0  0  0  0  0  0  0
    4.8790   -0.5227   24.7573 H   0  0  0  0  0  0  0  0  0  0  0  0
    5.8960   -0.4720   23.0475 H   0  0  0  0  0  0  0  0  0  0  0  0
    7.1139    0.7839   23.1785 H   0  0  0  0  0  0  0  0  0  0  0  0
    4.7454    1.1807   21.2940 H   0  0  0  0  0  0  0  0  0  0  0  0
    7.2774   -0.3353   20.4539 H   0  0  0  0  0  0  0  0  0  0  0  0
    5.8175   -1.1400   20.9368 H   0  0  0  0  0  0  0  0  0  0  0  0
    5.5896   -0.9664   18.5346 H   0  0  0  0  0  0  0  0  0  0  0  0
    4.5495    0.2982   19.1654 H   0  0  0  0  0  0  0  0  0  0  0  0
    7.3332    3.1792   19.0427 H   0  0  0  0  0  0  0  0  0  0  0  0
    5.5790    3.1078   19.1935 H   0  0  0  0  0  0  0  0  0  0  0  0
    6.2442    3.0926   21.4106 H   0  0  0  0  0  0  0  0  0  0  0  0
    7.6339    2.1102   21.1522 H   0  0  0  0  0  0  0  0  0  0  0  0
    1.0915    1.4711   29.0907 H   0  0  0  0  0  0  0  0  0  0  0  0
    2.6052    1.9370   28.2260 H   0  0  0  0  0  0  0  0  0  0  0  0
    2.3514   -0.3017   30.3357 H   0  0  0  0  0  0  0  0  0  0  0  0
    3.8640    0.1369   29.4373 H   0  0  0  0  0  0  0  0  0  0  0  0
  1  2  1  0
  2  3  1  0
  3  4  1  0
  4  5  1  0
  5  6  1  0
  6  7  1  0
  7  8  1  0
  8  9  2  0
  8 10  1  0
 10 11  1  0
 11 12  1  0
 12 13  1  0
 13 14  1  0
 14 15  2  0
 14 16  2  0
 14 17  1  0
 17 18  1  0
  4 19  1  0
 19 20  1  0
 20  4  1  0
 18 11  1  0
  1 21  1  0
  1 22  1  0
  1 23  1  0
  3 24  1  0
  3 25  1  0
  5 26  1  0
  5 27  1  0
  6 28  1  0
  6 29  1  0
  7 30  1  0
 10 31  1  0
 10 32  1  0
 11 33  1  0
 12 34  1  0
 12 35  1  0
 13 36  1  0
 13 37  1  0
 17 38  1  0
 17 39  1  0
 18 40  1  0
 18 41  1  0
 19 42  1  0
 19 43  1  0
 20 44  1  0
 20 45  1  0
M  END
>  <Energy>  (1368) 
59.317975471217018

>  <compound_id>  (1368) 
81121

>  <target_id>  (1368) 
1

>  <reference_id>  (1368) 
7

>  <inspiration_ids>  (1368) 
[97, 7]

>  <energy_score>  (1368) 
-18.172529649582458

>  <distance_score>  (1368) 
13.390246159023347

>  <path>  (1368) 
/opt/xchem-fragalysis-2/maxwin/BulkDock/SCRATCH/511024/C81121-P7/C81121-P7.minimised.mol

>  <scratch_subdir>  (1368) 
/opt/xchem-fragalysis-2/maxwin/BulkDock/SCRATCH/511024/C81121-P7

>  <fragmenstein_runtime>  (1368) 
23.929260730743408

>  <fragmenstein_outcome>  (1368) 
too moved

>  <fragmenstein_mode>  (1368) 
expansion

>  <fragmenstein_error>  (1368) 


$$$$
C81129-P97
     RDKit          3D

 55 57  0  0  0  0  0  0  0  0999 V2000
    7.6269    4.2205   16.9264 C   0  0  0  0  0  0  0  0  0  0  0  0
    7.3198    4.8827   18.2797 C   0  0  0  0  0  0  0  0  0  0  0  0
    6.8780    6.3326   18.0877 C   0  0  0  0  0  0  0  0  0  0  0  0
    6.2027    4.1295   19.0333 C   0  0  0  0  0  0  0  0  0  0  0  0
    5.2419    3.7480   18.5217 O   0  0  0  0  0  0  0  0  0  0  0  0
    6.6817    4.1463   20.5591 N   0  0  0  0  0  0  0  0  0  0  0  0
    6.1447    3.8587   21.7111 C   0  0  0  0  0  0  0  0  0  0  0  0
    7.8860    3.5114   22.2567 C   0  0  0  0  0  0  0  0  0  0  0  0
    7.7226    2.2144   23.0083 C   0  0  0  0  0  0  0  0  0  0  0  0
    6.3195    2.5084   23.4466 C   0  0  0  0  0  0  0  0  0  0  0  0
    5.4799    1.3505   24.0166 C   0  0  0  0  0  0  0  0  0  0  0  0
    4.0839    1.8415   24.5254 C   0  0  0  0  0  0  0  0  0  0  0  0
    3.4976    1.1829   25.6967 N   0  0  0  0  0  0  0  0  0  0  0  0
    2.4119    1.5975   26.5836 C   0  0  0  0  0  0  0  0  0  0  0  0
    1.7814    2.6170   26.6228 O   0  0  0  0  0  0  0  0  0  0  0  0
    2.1113    0.5198   27.6600 C   0  0  0  0  0  0  0  0  0  0  0  0
    0.6596    0.4799   28.2274 C   0  0  0  0  0  0  0  0  0  0  0  0
    0.4407   -0.5444   29.3819 C   0  0  0  0  0  0  0  0  0  0  0  0
   -0.5657    0.4131   29.9193 C   0  0  0  0  0  0  0  0  0  0  0  0
   -2.0244    0.1388   30.1282 C   0  0  0  0  0  0  0  0  0  0  0  0
   -1.1421    0.4396   31.3056 C   0  0  0  0  0  0  0  0  0  0  0  0
    0.0600    1.5555   29.1977 C   0  0  0  0  0  0  0  0  0  0  0  0
    5.6743    3.2528   21.9889 C   0  0  0  0  0  0  0  0  0  0  0  0
    6.7538    4.2568   16.2650 H   0  0  0  0  0  0  0  0  0  0  0  0
    8.4482    4.7427   16.4244 H   0  0  0  0  0  0  0  0  0  0  0  0
    7.9107    3.1716   17.0294 H   0  0  0  0  0  0  0  0  0  0  0  0
    8.2371    4.8982   18.8771 H   0  0  0  0  0  0  0  0  0  0  0  0
    6.6728    6.8088   19.0526 H   0  0  0  0  0  0  0  0  0  0  0  0
    7.6559    6.9133   17.5814 H   0  0  0  0  0  0  0  0  0  0  0  0
    5.9621    6.3941   17.4895 H   0  0  0  0  0  0  0  0  0  0  0  0
    5.5556    4.9394   21.4294 H   0  0  0  0  0  0  0  0  0  0  0  0
    6.3728    4.8006   22.5412 H   0  0  0  0  0  0  0  0  0  0  0  0
    8.6114    3.4345   21.4430 H   0  0  0  0  0  0  0  0  0  0  0  0
    8.2106    4.3195   22.9302 H   0  0  0  0  0  0  0  0  0  0  0  0
    8.4328    2.0926   23.8288 H   0  0  0  0  0  0  0  0  0  0  0  0
    7.7689    1.3509   22.3381 H   0  0  0  0  0  0  0  0  0  0  0  0
    6.3402    3.2995   24.2153 H   0  0  0  0  0  0  0  0  0  0  0  0
    6.0258    0.9051   24.8570 H   0  0  0  0  0  0  0  0  0  0  0  0
    5.3410    0.5618   23.2689 H   0  0  0  0  0  0  0  0  0  0  0  0
    3.3519    1.7433   23.7157 H   0  0  0  0  0  0  0  0  0  0  0  0
    4.1218    2.9073   24.7782 H   0  0  0  0  0  0  0  0  0  0  0  0
    3.7403    0.2185   25.8978 H   0  0  0  0  0  0  0  0  0  0  0  0
    2.3254   -0.4681   27.2348 H   0  0  0  0  0  0  0  0  0  0  0  0
    2.8198    0.6875   28.4799 H   0  0  0  0  0  0  0  0  0  0  0  0
   -0.0334    0.2820   27.3961 H   0  0  0  0  0  0  0  0  0  0  0  0
    0.0730   -1.5230   29.0607 H   0  0  0  0  0  0  0  0  0  0  0  0
    1.3041   -0.6872   30.0418 H   0  0  0  0  0  0  0  0  0  0  0  0
   -2.7383    0.8945   29.8263 H   0  0  0  0  0  0  0  0  0  0  0  0
   -2.3630   -0.8823   30.0090 H   0  0  0  0  0  0  0  0  0  0  0  0
   -1.2671    1.3993   31.7934 H   0  0  0  0  0  0  0  0  0  0  0  0
   -0.9006   -0.3748   31.9783 H   0  0  0  0  0  0  0  0  0  0  0  0
    0.8073    2.0995   29.7858 H   0  0  0  0  0  0  0  0  0  0  0  0
   -0.6161    2.2719   28.7235 H   0  0  0  0  0  0  0  0  0  0  0  0
    5.4125    2.2220   21.3954 H   0  0  0  0  0  0  0  0  0  0  0  0
    4.4660    3.5158   22.1391 H   0  0  0  0  0  0  0  0  0  0  0  0
  1  2  1  0
  2  3  1  0
  2  4  1  0
  4  5  2  0
  4  6  1  0
  6  7  1  0
  7  8  1  0
  8  9  1  0
  9 10  1  0
 10 11  1  0
 11 12  1  0
 12 13  1  0
 13 14  1  0
 14 15  2  0
 14 16  1  0
 16 17  1  0
 17 18  1  0
 18 19  1  0
 19 20  1  0
 20 21  1  0
 19 22  1  0
 10 23  1  0
 23  6  1  0
 22 17  1  0
 21 19  1  0
  1 24  1  0
  1 25  1  0
  1 26  1  0
  2 27  1  0
  3 28  1  0
  3 29  1  0
  3 30  1  0
  7 31  1  0
  7 32  1  0
  8 33  1  0
  8 34  1  0
  9 35  1  0
  9 36  1  0
 10 37  1  0
 11 38  1  0
 11 39  1  0
 12 40  1  0
 12 41  1  0
 13 42  1  0
 16 43  1  0
 16 44  1  0
 17 45  1  0
 18 46  1  0
 18 47  1  0
 20 48  1  0
 20 49  1  0
 21 50  1  0
 21 51  1  0
 22 52  1  0
 22 53  1  0
 23 54  1  0
 23 55  1  0
M  END
>  <Energy>  (1369) 
784.43719434170441

>  <compound_id>  (1369) 
81129

>  <target_id>  (1369) 
1

>  <reference_id>  (1369) 
97

>  <inspiration_ids>  (1369) 
[97, 7]

>  <energy_score>  (1369) 
742.622235139951

>  <distance_score>  (1369) 
13.620483552103469

>  <path>  (1369) 
/opt/xchem-fragalysis-2/maxwin/BulkDock/SCRATCH/511024/C81129-P97/C81129-P97.minimised.mol

>  <scratch_subdir>  (1369) 
/opt/xchem-fragalysis-2/maxwin/BulkDock/SCRATCH/511024/C81129-P97

>  <fragmenstein_runtime>  (1369) 
24.944887399673462

>  <fragmenstein_outcome>  (1369) 
too moved

>  <fragmenstein_mode>  (1369) 
expansion

>  <fragmenstein_error>  (1369) 


$$$$
C81129-P7
     RDKit          3D

 55 57  0  0  0  0  0  0  0  0999 V2000
   11.5287    4.0173   18.4122 C   0  0  0  0  0  0  0  0  0  0  0  0
   11.5587    4.4872   19.8726 C   0  0  0  0  0  0  0  0  0  0  0  0
   12.9002    5.1528   20.1789 C   0  0  0  0  0  0  0  0  0  0  0  0
   10.3894    5.4418   20.2054 C   0  0  0  0  0  0  0  0  0  0  0  0
   10.5043    6.5881   20.3391 O   0  0  0  0  0  0  0  0  0  0  0  0
    9.1531    4.4920   20.3103 N   0  0  0  0  0  0  0  0  0  0  0  0
    7.8889    4.6680   20.4547 C   0  0  0  0  0  0  0  0  0  0  0  0
    6.9583    3.6269   19.2628 C   0  0  0  0  0  0  0  0  0  0  0  0
    5.9805    2.9654   20.1930 C   0  0  0  0  0  0  0  0  0  0  0  0
    5.9812    3.9843   21.3202 C   0  0  0  0  0  0  0  0  0  0  0  0
    6.0448    3.3846   22.7350 C   0  0  0  0  0  0  0  0  0  0  0  0
    4.7456    2.6603   23.1944 C   0  0  0  0  0  0  0  0  0  0  0  0
    3.7151    3.4692   23.8494 N   0  0  0  0  0  0  0  0  0  0  0  0
    2.6513    3.0929   24.7807 C   0  0  0  0  0  0  0  0  0  0  0  0
    2.4065    2.0439   25.3011 O   0  0  0  0  0  0  0  0  0  0  0  0
    1.7803    4.3173   25.1199 C   0  0  0  0  0  0  0  0  0  0  0  0
    0.4391    4.1478   25.8934 C   0  0  0  0  0  0  0  0  0  0  0  0
   -0.7008    3.2297   25.3704 C   0  0  0  0  0  0  0  0  0  0  0  0
   -1.1185    3.1139   26.8001 C   0  0  0  0  0  0  0  0  0  0  0  0
   -2.4224    3.6001   27.3604 C   0  0  0  0  0  0  0  0  0  0  0  0
   -2.0658    2.1397   27.4296 C   0  0  0  0  0  0  0  0  0  0  0  0
    0.2545    3.4407   27.2791 C   0  0  0  0  0  0  0  0  0  0  0  0
    7.3682    5.0670   20.9413 C   0  0  0  0  0  0  0  0  0  0  0  0
   10.5416    3.6636   18.1063 H   0  0  0  0  0  0  0  0  0  0  0  0
   11.7830    4.8438   17.7385 H   0  0  0  0  0  0  0  0  0  0  0  0
   12.2549    3.2149   18.2483 H   0  0  0  0  0  0  0  0  0  0  0  0
   11.4669    3.6140   20.5305 H   0  0  0  0  0  0  0  0  0  0  0  0
   13.0625    6.0357   19.5507 H   0  0  0  0  0  0  0  0  0  0  0  0
   12.9421    5.4786   21.2240 H   0  0  0  0  0  0  0  0  0  0  0  0
   13.7280    4.4566   20.0086 H   0  0  0  0  0  0  0  0  0  0  0  0
    8.1583    3.5229   20.9115 H   0  0  0  0  0  0  0  0  0  0  0  0
    8.1097    5.2576   19.3696 H   0  0  0  0  0  0  0  0  0  0  0  0
    7.6276    2.9541   18.7255 H   0  0  0  0  0  0  0  0  0  0  0  0
    6.4431    4.2991   18.5631 H   0  0  0  0  0  0  0  0  0  0  0  0
    4.9936    2.8232   19.7450 H   0  0  0  0  0  0  0  0  0  0  0  0
    6.3583    1.9934   20.5263 H   0  0  0  0  0  0  0  0  0  0  0  0
    5.1041    4.6422   21.2481 H   0  0  0  0  0  0  0  0  0  0  0  0
    6.8711    2.6642   22.7727 H   0  0  0  0  0  0  0  0  0  0  0  0
    6.2801    4.1741   23.4580 H   0  0  0  0  0  0  0  0  0  0  0  0
    4.2645    2.1504   22.3531 H   0  0  0  0  0  0  0  0  0  0  0  0
    5.0151    1.8831   23.9190 H   0  0  0  0  0  0  0  0  0  0  0  0
    3.6677    4.4664   23.6773 H   0  0  0  0  0  0  0  0  0  0  0  0
    1.5461    4.8203   24.1725 H   0  0  0  0  0  0  0  0  0  0  0  0
    2.4174    4.9979   25.6994 H   0  0  0  0  0  0  0  0  0  0  0  0
    0.0623    5.1851   25.9742 H   0  0  0  0  0  0  0  0  0  0  0  0
   -0.3672    2.2991   24.9134 H   0  0  0  0  0  0  0  0  0  0  0  0
   -1.4051    3.7195   24.6917 H   0  0  0  0  0  0  0  0  0  0  0  0
   -2.3780    4.2033   28.2547 H   0  0  0  0  0  0  0  0  0  0  0  0
   -3.2038    3.8917   26.6682 H   0  0  0  0  0  0  0  0  0  0  0  0
   -1.8085    1.7243   28.3973 H   0  0  0  0  0  0  0  0  0  0  0  0
   -2.5994    1.4553   26.7832 H   0  0  0  0  0  0  0  0  0  0  0  0
    0.8892    2.5629   27.4387 H   0  0  0  0  0  0  0  0  0  0  0  0
    0.3341    4.1022   28.1458 H   0  0  0  0  0  0  0  0  0  0  0  0
    7.6197    5.4974   22.0480 H   0  0  0  0  0  0  0  0  0  0  0  0
    6.9269    6.1565   20.5406 H   0  0  0  0  0  0  0  0  0  0  0  0
  1  2  1  0
  2  3  1  0
  2  4  1  0
  4  5  2  0
  4  6  1  0
  6  7  1  0
  7  8  1  0
  8  9  1  0
  9 10  1  0
 10 11  1  0
 11 12  1  0
 12 13  1  0
 13 14  1  0
 14 15  2  0
 14 16  1  0
 16 17  1  0
 17 18  1  0
 18 19  1  0
 19 20  1  0
 20 21  1  0
 19 22  1  0
 10 23  1  0
 23  6  1  0
 22 17  1  0
 21 19  1  0
  1 24  1  0
  1 25  1  0
  1 26  1  0
  2 27  1  0
  3 28  1  0
  3 29  1  0
  3 30  1  0
  7 31  1  0
  7 32  1  0
  8 33  1  0
  8 34  1  0
  9 35  1  0
  9 36  1  0
 10 37  1  0
 11 38  1  0
 11 39  1  0
 12 40  1  0
 12 41  1  0
 13 42  1  0
 16 43  1  0
 16 44  1  0
 17 45  1  0
 18 46  1  0
 18 47  1  0
 20 48  1  0
 20 49  1  0
 21 50  1  0
 21 51  1  0
 22 52  1  0
 22 53  1  0
 23 54  1  0
 23 55  1  0
M  END
>  <Energy>  (1370) 
798.72426135862986

>  <compound_id>  (1370) 
81129

>  <target_id>  (1370) 
1

>  <reference_id>  (1370) 
7

>  <inspiration_ids>  (1370) 
[97, 7]

>  <energy_score>  (1370) 
756.9093021568726

>  <distance_score>  (1370) 
13.501445398364595

>  <path>  (1370) 
/opt/xchem-fragalysis-2/maxwin/BulkDock/SCRATCH/511024/C81129-P7/C81129-P7.minimised.mol

>  <scratch_subdir>  (1370) 
/opt/xchem-fragalysis-2/maxwin/BulkDock/SCRATCH/511024/C81129-P7

>  <fragmenstein_runtime>  (1370) 
34.37643218040466

>  <fragmenstein_outcome>  (1370) 
too moved

>  <fragmenstein_mode>  (1370) 
expansion

>  <fragmenstein_error>  (1370) 


$$$$
C81130-P97
     RDKit          3D

 53 56  0  0  0  0  0  0  0  0999 V2000
   14.4453    0.5827   17.5229 C   0  0  0  0  0  0  0  0  0  0  0  0
   15.1008   -0.4839   16.6767 C   0  0  0  0  0  0  0  0  0  0  0  0
   14.3749   -1.8304   16.6832 C   0  0  0  0  0  0  0  0  0  0  0  0
   15.0020   -2.8155   16.9739 O   0  0  0  0  0  0  0  0  0  0  0  0
   13.0242   -1.6878   16.2310 N   0  0  0  0  0  0  0  0  0  0  0  0
   12.9719   -1.7329   14.7572 C   0  0  0  0  0  0  0  0  0  0  0  0
   11.5476   -1.5643   14.3239 C   0  0  0  0  0  0  0  0  0  0  0  0
   10.9979   -0.1457   14.4914 C   0  0  0  0  0  0  0  0  0  0  0  0
   10.0534   -0.6644   15.5652 C   0  0  0  0  0  0  0  0  0  0  0  0
   10.6477   -2.1128   15.4461 C   0  0  0  0  0  0  0  0  0  0  0  0
    9.5861   -3.2203   14.9913 C   0  0  0  0  0  0  0  0  0  0  0  0
    7.8061   -3.5171   15.4650 C   0  0  0  0  0  0  0  0  0  0  0  0
    7.1502   -5.3260   16.0868 N   0  0  0  0  0  0  0  0  0  0  0  0
    5.7659   -5.7537   16.9162 C   0  0  0  0  0  0  0  0  0  0  0  0
    4.8070   -5.0699   17.2565 O   0  0  0  0  0  0  0  0  0  0  0  0
    5.6213   -7.1699   17.4773 C   0  0  0  0  0  0  0  0  0  0  0  0
    4.6688   -7.2426   18.8165 C   0  0  0  0  0  0  0  0  0  0  0  0
    3.1450   -6.7842   18.9638 C   0  0  0  0  0  0  0  0  0  0  0  0
    3.4623   -6.4039   20.3732 C   0  0  0  0  0  0  0  0  0  0  0  0
    2.6613   -5.4534   21.2388 C   0  0  0  0  0  0  0  0  0  0  0  0
    2.7895   -6.8944   21.6313 C   0  0  0  0  0  0  0  0  0  0  0  0
    4.9354   -6.3332   20.0735 C   0  0  0  0  0  0  0  0  0  0  0  0
   11.9240   -2.7081   16.0805 C   0  0  0  0  0  0  0  0  0  0  0  0
   13.4421    0.8234   17.1608 H   0  0  0  0  0  0  0  0  0  0  0  0
   15.0386    1.5022   17.5026 H   0  0  0  0  0  0  0  0  0  0  0  0
   14.3759    0.2494   18.5617 H   0  0  0  0  0  0  0  0  0  0  0  0
   15.2109   -0.1381   15.6441 H   0  0  0  0  0  0  0  0  0  0  0  0
   16.1164   -0.6535   17.0558 H   0  0  0  0  0  0  0  0  0  0  0  0
   13.4738   -2.6132   14.3465 H   0  0  0  0  0  0  0  0  0  0  0  0
   13.5716   -0.8981   14.3714 H   0  0  0  0  0  0  0  0  0  0  0  0
   11.4656   -2.0043   13.3313 H   0  0  0  0  0  0  0  0  0  0  0  0
   11.7164    0.5984   14.8536 H   0  0  0  0  0  0  0  0  0  0  0  0
   10.5011    0.2764   13.6131 H   0  0  0  0  0  0  0  0  0  0  0  0
   10.1861   -0.1086   16.4858 H   0  0  0  0  0  0  0  0  0  0  0  0
    8.9962   -0.5838   15.2871 H   0  0  0  0  0  0  0  0  0  0  0  0
    9.2316   -2.7169   14.1453 H   0  0  0  0  0  0  0  0  0  0  0  0
   10.1424   -4.1332   14.8059 H   0  0  0  0  0  0  0  0  0  0  0  0
    7.1930   -3.1455   14.5899 H   0  0  0  0  0  0  0  0  0  0  0  0
    7.5405   -2.5649   15.9283 H   0  0  0  0  0  0  0  0  0  0  0  0
    7.6973   -6.1483   15.8941 H   0  0  0  0  0  0  0  0  0  0  0  0
    5.1689   -7.8015   16.7063 H   0  0  0  0  0  0  0  0  0  0  0  0
    6.5689   -7.5895   17.7666 H   0  0  0  0  0  0  0  0  0  0  0  0
    4.7483   -8.3077   19.1001 H   0  0  0  0  0  0  0  0  0  0  0  0
    2.8374   -5.9392   18.3415 H   0  0  0  0  0  0  0  0  0  0  0  0
    2.4217   -7.5944   18.8322 H   0  0  0  0  0  0  0  0  0  0  0  0
    3.2005   -4.7156   21.8222 H   0  0  0  0  0  0  0  0  0  0  0  0
    1.7038   -5.1079   20.8661 H   0  0  0  0  0  0  0  0  0  0  0  0
    1.9145   -7.5255   21.5293 H   0  0  0  0  0  0  0  0  0  0  0  0
    3.4137   -7.1307   22.4850 H   0  0  0  0  0  0  0  0  0  0  0  0
    5.6003   -6.7761   20.8204 H   0  0  0  0  0  0  0  0  0  0  0  0
    5.2821   -5.3194   19.8485 H   0  0  0  0  0  0  0  0  0  0  0  0
   12.2686   -3.6492   15.6138 H   0  0  0  0  0  0  0  0  0  0  0  0
   11.7693   -3.0537   17.0929 H   0  0  0  0  0  0  0  0  0  0  0  0
  1  2  1  0
  2  3  1  0
  3  4  2  0
  3  5  1  0
  5  6  1  0
  6  7  1  0
  7  8  1  0
  8  9  1  0
  9 10  1  0
 10 11  1  0
 11 12  1  0
 12 13  1  0
 13 14  1  0
 14 15  2  0
 14 16  1  0
 16 17  1  0
 17 18  1  0
 18 19  1  0
 19 20  1  0
 20 21  1  0
 19 22  1  0
 10 23  1  0
 23  5  1  0
 10  7  1  0
 22 17  1  0
 21 19  1  0
  1 24  1  0
  1 25  1  0
  1 26  1  0
  2 27  1  0
  2 28  1  0
  6 29  1  0
  6 30  1  0
  7 31  1  0
  8 32  1  0
  8 33  1  0
  9 34  1  0
  9 35  1  0
 11 36  1  0
 11 37  1  0
 12 38  1  0
 12 39  1  0
 13 40  1  0
 16 41  1  0
 16 42  1  0
 17 43  1  0
 18 44  1  0
 18 45  1  0
 20 46  1  0
 20 47  1  0
 21 48  1  0
 21 49  1  0
 22 50  1  0
 22 51  1  0
 23 52  1  0
 23 53  1  0
M  END
>  <Energy>  (1371) 
286.29359938530217

>  <compound_id>  (1371) 
81130

>  <target_id>  (1371) 
1

>  <reference_id>  (1371) 
97

>  <inspiration_ids>  (1371) 
[97, 7]

>  <energy_score>  (1371) 
237.9328121683302

>  <distance_score>  (1371) 
13.66359547143461

>  <path>  (1371) 
/opt/xchem-fragalysis-2/maxwin/BulkDock/SCRATCH/511024/C81130-P97/C81130-P97.minimised.mol

>  <scratch_subdir>  (1371) 
/opt/xchem-fragalysis-2/maxwin/BulkDock/SCRATCH/511024/C81130-P97

>  <fragmenstein_runtime>  (1371) 
21.44946813583374

>  <fragmenstein_outcome>  (1371) 
too moved

>  <fragmenstein_mode>  (1371) 
expansion

>  <fragmenstein_error>  (1371) 


$$$$
C81130-P7
     RDKit          3D

 53 56  0  0  0  0  0  0  0  0999 V2000
    0.9375   -3.1804   18.9077 C   0  0  0  0  0  0  0  0  0  0  0  0
    2.4493   -3.2032   18.7734 C   0  0  0  0  0  0  0  0  0  0  0  0
    3.1305   -2.7534   20.0614 C   0  0  0  0  0  0  0  0  0  0  0  0
    3.6598   -3.5584   20.7810 O   0  0  0  0  0  0  0  0  0  0  0  0
    2.9468   -1.3402   20.2192 N   0  0  0  0  0  0  0  0  0  0  0  0
    4.1057   -0.5992   19.6067 C   0  0  0  0  0  0  0  0  0  0  0  0
    5.2435   -0.5095   20.5661 C   0  0  0  0  0  0  0  0  0  0  0  0
    6.5064    0.2933   20.9595 C   0  0  0  0  0  0  0  0  0  0  0  0
    5.7558    0.4652   22.3107 C   0  0  0  0  0  0  0  0  0  0  0  0
    4.4712    0.5054   21.3993 C   0  0  0  0  0  0  0  0  0  0  0  0
    4.2470    1.9875   20.9270 C   0  0  0  0  0  0  0  0  0  0  0  0
    2.8101    2.5384   21.0422 C   0  0  0  0  0  0  0  0  0  0  0  0
    2.3375    2.8338   22.3833 N   0  0  0  0  0  0  0  0  0  0  0  0
    0.9997    2.8309   22.9403 C   0  0  0  0  0  0  0  0  0  0  0  0
   -0.0467    2.5074   22.4569 O   0  0  0  0  0  0  0  0  0  0  0  0
    1.0259    3.3679   24.3818 C   0  0  0  0  0  0  0  0  0  0  0  0
   -0.2271    3.0592   25.2162 C   0  0  0  0  0  0  0  0  0  0  0  0
   -1.5223    3.9201   25.2107 C   0  0  0  0  0  0  0  0  0  0  0  0
   -1.5690    3.6087   26.6598 C   0  0  0  0  0  0  0  0  0  0  0  0
   -2.5947    2.8183   27.4015 C   0  0  0  0  0  0  0  0  0  0  0  0
   -2.4122    4.2986   27.6628 C   0  0  0  0  0  0  0  0  0  0  0  0
   -0.1015    3.4075   26.7201 C   0  0  0  0  0  0  0  0  0  0  0  0
    3.2627   -0.4099   21.4126 C   0  0  0  0  0  0  0  0  0  0  0  0
    0.5662   -2.1629   19.0671 H   0  0  0  0  0  0  0  0  0  0  0  0
    0.4692   -3.5736   18.0001 H   0  0  0  0  0  0  0  0  0  0  0  0
    0.6107   -3.7909   19.7560 H   0  0  0  0  0  0  0  0  0  0  0  0
    2.7661   -2.5676   17.9398 H   0  0  0  0  0  0  0  0  0  0  0  0
    2.7893   -4.2197   18.5441 H   0  0  0  0  0  0  0  0  0  0  0  0
    3.7243    0.3209   19.1421 H   0  0  0  0  0  0  0  0  0  0  0  0
    4.4456   -1.1888   18.7439 H   0  0  0  0  0  0  0  0  0  0  0  0
    5.3997   -1.5233   20.9813 H   0  0  0  0  0  0  0  0  0  0  0  0
    6.7113    1.2214   20.4218 H   0  0  0  0  0  0  0  0  0  0  0  0
    7.4131   -0.2869   21.0396 H   0  0  0  0  0  0  0  0  0  0  0  0
    6.0092    1.3657   22.8764 H   0  0  0  0  0  0  0  0  0  0  0  0
    5.8138   -0.3940   22.9909 H   0  0  0  0  0  0  0  0  0  0  0  0
    4.9003    2.6659   21.4911 H   0  0  0  0  0  0  0  0  0  0  0  0
    4.5567    2.0986   19.8812 H   0  0  0  0  0  0  0  0  0  0  0  0
    2.0745    1.9076   20.5346 H   0  0  0  0  0  0  0  0  0  0  0  0
    2.7822    3.5030   20.5208 H   0  0  0  0  0  0  0  0  0  0  0  0
    2.9970    3.0948   23.1074 H   0  0  0  0  0  0  0  0  0  0  0  0
    1.1942    4.4500   24.3377 H   0  0  0  0  0  0  0  0  0  0  0  0
    1.8871    2.9138   24.8882 H   0  0  0  0  0  0  0  0  0  0  0  0
   -0.5098    2.0134   25.0827 H   0  0  0  0  0  0  0  0  0  0  0  0
   -1.3653    4.9790   24.9774 H   0  0  0  0  0  0  0  0  0  0  0  0
   -2.3316    3.5305   24.5875 H   0  0  0  0  0  0  0  0  0  0  0  0
   -3.4903    2.5142   26.8706 H   0  0  0  0  0  0  0  0  0  0  0  0
   -2.2669    2.1241   28.1639 H   0  0  0  0  0  0  0  0  0  0  0  0
   -3.1948    4.9635   27.3136 H   0  0  0  0  0  0  0  0  0  0  0  0
   -1.9026    4.6422   28.5498 H   0  0  0  0  0  0  0  0  0  0  0  0
    0.2691    2.5946   27.3505 H   0  0  0  0  0  0  0  0  0  0  0  0
    0.4676    4.3182   26.9399 H   0  0  0  0  0  0  0  0  0  0  0  0
    2.3249    0.1143   21.6143 H   0  0  0  0  0  0  0  0  0  0  0  0
    3.3560   -1.1001   22.2667 H   0  0  0  0  0  0  0  0  0  0  0  0
  1  2  1  0
  2  3  1  0
  3  4  2  0
  3  5  1  0
  5  6  1  0
  6  7  1  0
  7  8  1  0
  8  9  1  0
  9 10  1  0
 10 11  1  0
 11 12  1  0
 12 13  1  0
 13 14  1  0
 14 15  2  0
 14 16  1  0
 16 17  1  0
 17 18  1  0
 18 19  1  0
 19 20  1  0
 20 21  1  0
 19 22  1  0
 10 23  1  0
 23  5  1  0
 10  7  1  0
 22 17  1  0
 21 19  1  0
  1 24  1  0
  1 25  1  0
  1 26  1  0
  2 27  1  0
  2 28  1  0
  6 29  1  0
  6 30  1  0
  7 31  1  0
  8 32  1  0
  8 33  1  0
  9 34  1  0
  9 35  1  0
 11 36  1  0
 11 37  1  0
 12 38  1  0
 12 39  1  0
 13 40  1  0
 16 41  1  0
 16 42  1  0
 17 43  1  0
 18 44  1  0
 18 45  1  0
 20 46  1  0
 20 47  1  0
 21 48  1  0
 21 49  1  0
 22 50  1  0
 22 51  1  0
 23 52  1  0
 23 53  1  0
M  END
>  <Energy>  (1372) 
127.48437867171168

>  <compound_id>  (1372) 
81130

>  <target_id>  (1372) 
1

>  <reference_id>  (1372) 
7

>  <inspiration_ids>  (1372) 
[97, 7]

>  <energy_score>  (1372) 
79.12359145473994

>  <distance_score>  (1372) 
14.022333857430668

>  <path>  (1372) 
/opt/xchem-fragalysis-2/maxwin/BulkDock/SCRATCH/511024/C81130-P7/C81130-P7.minimised.mol

>  <scratch_subdir>  (1372) 
/opt/xchem-fragalysis-2/maxwin/BulkDock/SCRATCH/511024/C81130-P7

>  <fragmenstein_runtime>  (1372) 
29.172750234603882

>  <fragmenstein_outcome>  (1372) 
too moved

>  <fragmenstein_mode>  (1372) 
expansion

>  <fragmenstein_error>  (1372) 


$$$$
C81147-P97
     RDKit          3D

 52 54  0  0  0  0  0  0  0  0999 V2000
   11.6355   -3.6786   22.0544 O   0  0  0  0  0  0  0  0  0  0  0  0
   11.1869   -3.9055   20.9235 C   0  0  0  0  0  0  0  0  0  0  0  0
   12.4190   -4.4610   19.9312 C   0  0  0  0  0  0  0  0  0  0  0  0
   13.1804   -4.0603   18.6409 C   0  0  0  0  0  0  0  0  0  0  0  0
   14.2708   -2.9658   18.5629 C   0  0  0  0  0  0  0  0  0  0  0  0
   13.7441   -2.6380   17.2150 C   0  0  0  0  0  0  0  0  0  0  0  0
   14.5536   -2.1428   16.0569 C   0  0  0  0  0  0  0  0  0  0  0  0
   13.5083   -1.2604   16.6733 C   0  0  0  0  0  0  0  0  0  0  0  0
   12.7738   -3.7573   17.1762 C   0  0  0  0  0  0  0  0  0  0  0  0
    9.2881   -3.7786   20.4886 N   0  0  0  0  0  0  0  0  0  0  0  0
    7.7683   -3.4521   21.6074 C   0  0  0  0  0  0  0  0  0  0  0  0
    7.7047   -3.4954   23.2213 C   0  0  0  0  0  0  0  0  0  0  0  0
    6.4770   -2.7305   23.9359 C   0  0  0  0  0  0  0  0  0  0  0  0
    5.1204   -3.4270   23.7833 C   0  0  0  0  0  0  0  0  0  0  0  0
    3.8973   -2.6973   24.3530 C   0  0  0  0  0  0  0  0  0  0  0  0
    4.0311   -1.6178   25.4385 C   0  0  0  0  0  0  0  0  0  0  0  0
    4.5133   -2.0530   26.8181 N   0  0  0  0  0  0  0  0  0  0  0  0
    3.6814   -1.4394   27.8602 C   0  0  0  0  0  0  0  0  0  0  0  0
    3.8143   -0.3957   28.4547 O   0  0  0  0  0  0  0  0  0  0  0  0
    2.5094   -2.3904   28.2920 C   0  0  0  0  0  0  0  0  0  0  0  0
    1.9111   -3.0254   27.2530 F   0  0  0  0  0  0  0  0  0  0  0  0
    1.4830   -1.8039   29.0097 F   0  0  0  0  0  0  0  0  0  0  0  0
    5.8482   -1.6281   26.2472 C   0  0  0  0  0  0  0  0  0  0  0  0
    6.7367   -2.6231   25.4597 C   0  0  0  0  0  0  0  0  0  0  0  0
   13.2476   -4.4402   20.6652 H   0  0  0  0  0  0  0  0  0  0  0  0
   12.2216   -5.5293   19.9176 H   0  0  0  0  0  0  0  0  0  0  0  0
   13.7626   -5.0019   18.5559 H   0  0  0  0  0  0  0  0  0  0  0  0
   15.2930   -3.3647   18.5591 H   0  0  0  0  0  0  0  0  0  0  0  0
   14.2398   -2.1848   19.3258 H   0  0  0  0  0  0  0  0  0  0  0  0
   14.3516   -2.5311   15.0674 H   0  0  0  0  0  0  0  0  0  0  0  0
   15.5950   -1.8938   16.2280 H   0  0  0  0  0  0  0  0  0  0  0  0
   12.6080   -1.0767   16.0980 H   0  0  0  0  0  0  0  0  0  0  0  0
   13.8538   -0.4094   17.2485 H   0  0  0  0  0  0  0  0  0  0  0  0
   11.7560   -3.4613   16.9450 H   0  0  0  0  0  0  0  0  0  0  0  0
   13.0413   -4.5609   16.4821 H   0  0  0  0  0  0  0  0  0  0  0  0
    9.1451   -4.0815   19.5783 H   0  0  0  0  0  0  0  0  0  0  0  0
    7.3983   -2.4269   21.4784 H   0  0  0  0  0  0  0  0  0  0  0  0
    7.0419   -4.1926   21.2457 H   0  0  0  0  0  0  0  0  0  0  0  0
    8.6004   -3.0300   23.6463 H   0  0  0  0  0  0  0  0  0  0  0  0
    7.6635   -4.5408   23.5542 H   0  0  0  0  0  0  0  0  0  0  0  0
    6.4270   -1.7208   23.5099 H   0  0  0  0  0  0  0  0  0  0  0  0
    4.9367   -3.6258   22.7197 H   0  0  0  0  0  0  0  0  0  0  0  0
    5.1802   -4.4184   24.2523 H   0  0  0  0  0  0  0  0  0  0  0  0
    3.4021   -2.2118   23.5004 H   0  0  0  0  0  0  0  0  0  0  0  0
    3.2054   -3.4699   24.6858 H   0  0  0  0  0  0  0  0  0  0  0  0
    2.9804   -1.3449   25.6282 H   0  0  0  0  0  0  0  0  0  0  0  0
    4.3670   -0.6468   25.0336 H   0  0  0  0  0  0  0  0  0  0  0  0
    2.9407   -3.1546   28.9452 H   0  0  0  0  0  0  0  0  0  0  0  0
    5.9566   -0.5744   25.9357 H   0  0  0  0  0  0  0  0  0  0  0  0
    6.4032   -1.5527   27.1997 H   0  0  0  0  0  0  0  0  0  0  0  0
    6.6746   -3.6150   25.9261 H   0  0  0  0  0  0  0  0  0  0  0  0
    7.7733   -2.2877   25.5984 H   0  0  0  0  0  0  0  0  0  0  0  0
  1  2  2  0
  2  3  1  0
  3  4  1  0
  4  5  1  0
  5  6  1  0
  6  7  1  0
  7  8  1  0
  6  9  1  0
  2 10  1  0
 10 11  1  0
 11 12  1  0
 12 13  1  0
 13 14  1  0
 14 15  1  0
 15 16  1  0
 16 17  1  0
 17 18  1  0
 18 19  2  0
 18 20  1  0
 20 21  1  0
 20 22  1  0
 17 23  1  0
 23 24  1  0
  9  4  1  0
 24 13  1  0
  8  6  1  0
  3 25  1  0
  3 26  1  0
  4 27  1  0
  5 28  1  0
  5 29  1  0
  7 30  1  0
  7 31  1  0
  8 32  1  0
  8 33  1  0
  9 34  1  0
  9 35  1  0
 10 36  1  0
 11 37  1  0
 11 38  1  0
 12 39  1  0
 12 40  1  0
 13 41  1  0
 14 42  1  0
 14 43  1  0
 15 44  1  0
 15 45  1  0
 16 46  1  0
 16 47  1  0
 20 48  1  0
 23 49  1  0
 23 50  1  0
 24 51  1  0
 24 52  1  0
M  END
>  <Energy>  (1373) 
378.74055941845018

>  <compound_id>  (1373) 
81147

>  <target_id>  (1373) 
1

>  <reference_id>  (1373) 
97

>  <inspiration_ids>  (1373) 
[97, 7]

>  <energy_score>  (1373) 
263.7936952466979

>  <distance_score>  (1373) 
13.502412414751012

>  <path>  (1373) 
/opt/xchem-fragalysis-2/maxwin/BulkDock/SCRATCH/511024/C81147-P97/C81147-P97.minimised.mol

>  <scratch_subdir>  (1373) 
/opt/xchem-fragalysis-2/maxwin/BulkDock/SCRATCH/511024/C81147-P97

>  <fragmenstein_runtime>  (1373) 
20.188023328781128

>  <fragmenstein_outcome>  (1373) 
too moved

>  <fragmenstein_mode>  (1373) 
expansion

>  <fragmenstein_error>  (1373) 


$$$$
C81147-P7
     RDKit          3D

 52 54  0  0  0  0  0  0  0  0999 V2000
    6.1049    1.0616   23.4511 O   0  0  0  0  0  0  0  0  0  0  0  0
    5.1836    0.3125   23.2972 C   0  0  0  0  0  0  0  0  0  0  0  0
    4.8273   -0.1957   21.8902 C   0  0  0  0  0  0  0  0  0  0  0  0
    5.8343    0.0945   20.7551 C   0  0  0  0  0  0  0  0  0  0  0  0
    5.2530   -0.2483   19.3587 C   0  0  0  0  0  0  0  0  0  0  0  0
    5.9664    0.9479   18.8651 C   0  0  0  0  0  0  0  0  0  0  0  0
    6.9113    1.0770   17.7120 C   0  0  0  0  0  0  0  0  0  0  0  0
    5.5501    1.6970   17.6336 C   0  0  0  0  0  0  0  0  0  0  0  0
    6.0496    1.5398   20.2263 C   0  0  0  0  0  0  0  0  0  0  0  0
    4.2219   -0.2124   24.2477 N   0  0  0  0  0  0  0  0  0  0  0  0
    4.0168    0.0815   25.6643 C   0  0  0  0  0  0  0  0  0  0  0  0
    3.6705   -1.1790   26.4689 C   0  0  0  0  0  0  0  0  0  0  0  0
    2.9229   -0.9855   27.8764 C   0  0  0  0  0  0  0  0  0  0  0  0
    1.5406   -0.3013   27.8014 C   0  0  0  0  0  0  0  0  0  0  0  0
    0.8678    0.0734   29.1281 C   0  0  0  0  0  0  0  0  0  0  0  0
    1.1665   -0.8214   30.3325 C   0  0  0  0  0  0  0  0  0  0  0  0
    0.6518   -2.2425   30.1556 N   0  0  0  0  0  0  0  0  0  0  0  0
   -0.2055   -2.6067   31.2719 C   0  0  0  0  0  0  0  0  0  0  0  0
    0.0607   -3.1363   32.3225 O   0  0  0  0  0  0  0  0  0  0  0  0
   -1.6810   -2.1816   30.9888 C   0  0  0  0  0  0  0  0  0  0  0  0
   -2.0191   -2.2985   29.6740 F   0  0  0  0  0  0  0  0  0  0  0  0
   -2.6295   -2.9127   31.6786 F   0  0  0  0  0  0  0  0  0  0  0  0
    2.1140   -2.5120   29.9126 C   0  0  0  0  0  0  0  0  0  0  0  0
    2.7078   -2.3862   28.4927 C   0  0  0  0  0  0  0  0  0  0  0  0
    3.8546    0.2449   21.6356 H   0  0  0  0  0  0  0  0  0  0  0  0
    4.6935   -1.2834   21.9526 H   0  0  0  0  0  0  0  0  0  0  0  0
    6.7870   -0.4152   20.9519 H   0  0  0  0  0  0  0  0  0  0  0  0
    5.5226   -1.2182   18.9555 H   0  0  0  0  0  0  0  0  0  0  0  0
    4.1617   -0.1546   19.2817 H   0  0  0  0  0  0  0  0  0  0  0  0
    7.7358    1.7781   17.7623 H   0  0  0  0  0  0  0  0  0  0  0  0
    7.0958    0.2226   17.0762 H   0  0  0  0  0  0  0  0  0  0  0  0
    5.4780    2.7777   17.6923 H   0  0  0  0  0  0  0  0  0  0  0  0
    4.8074    1.2401   16.9893 H   0  0  0  0  0  0  0  0  0  0  0  0
    6.9935    2.0037   20.5183 H   0  0  0  0  0  0  0  0  0  0  0  0
    5.2325    2.2326   20.4588 H   0  0  0  0  0  0  0  0  0  0  0  0
    3.5251   -0.7588   23.7481 H   0  0  0  0  0  0  0  0  0  0  0  0
    3.2033    0.8100   25.6988 H   0  0  0  0  0  0  0  0  0  0  0  0
    4.9168    0.5643   26.0576 H   0  0  0  0  0  0  0  0  0  0  0  0
    3.0483   -1.8353   25.8553 H   0  0  0  0  0  0  0  0  0  0  0  0
    4.5999   -1.7365   26.6450 H   0  0  0  0  0  0  0  0  0  0  0  0
    3.5846   -0.3961   28.5228 H   0  0  0  0  0  0  0  0  0  0  0  0
    0.8571   -0.9680   27.2679 H   0  0  0  0  0  0  0  0  0  0  0  0
    1.6173    0.6162   27.2107 H   0  0  0  0  0  0  0  0  0  0  0  0
   -0.2164    0.1263   28.9645 H   0  0  0  0  0  0  0  0  0  0  0  0
    1.1805    1.0926   29.3908 H   0  0  0  0  0  0  0  0  0  0  0  0
    2.1547   -0.5975   30.7716 H   0  0  0  0  0  0  0  0  0  0  0  0
    0.5284   -0.3955   31.1254 H   0  0  0  0  0  0  0  0  0  0  0  0
   -1.8051   -1.1346   31.2792 H   0  0  0  0  0  0  0  0  0  0  0  0
    2.1032   -3.6091   30.0467 H   0  0  0  0  0  0  0  0  0  0  0  0
    2.8156   -2.2839   30.7353 H   0  0  0  0  0  0  0  0  0  0  0  0
    3.6867   -2.8792   28.5245 H   0  0  0  0  0  0  0  0  0  0  0  0
    2.0841   -2.9814   27.8124 H   0  0  0  0  0  0  0  0  0  0  0  0
  1  2  2  0
  2  3  1  0
  3  4  1  0
  4  5  1  0
  5  6  1  0
  6  7  1  0
  7  8  1  0
  6  9  1  0
  2 10  1  0
 10 11  1  0
 11 12  1  0
 12 13  1  0
 13 14  1  0
 14 15  1  0
 15 16  1  0
 16 17  1  0
 17 18  1  0
 18 19  2  0
 18 20  1  0
 20 21  1  0
 20 22  1  0
 17 23  1  0
 23 24  1  0
  9  4  1  0
 24 13  1  0
  8  6  1  0
  3 25  1  0
  3 26  1  0
  4 27  1  0
  5 28  1  0
  5 29  1  0
  7 30  1  0
  7 31  1  0
  8 32  1  0
  8 33  1  0
  9 34  1  0
  9 35  1  0
 10 36  1  0
 11 37  1  0
 11 38  1  0
 12 39  1  0
 12 40  1  0
 13 41  1  0
 14 42  1  0
 14 43  1  0
 15 44  1  0
 15 45  1  0
 16 46  1  0
 16 47  1  0
 20 48  1  0
 23 49  1  0
 23 50  1  0
 24 51  1  0
 24 52  1  0
M  END
>  <Energy>  (1374) 
157.69394467322016

>  <compound_id>  (1374) 
81147

>  <target_id>  (1374) 
1

>  <reference_id>  (1374) 
7

>  <inspiration_ids>  (1374) 
[97, 7]

>  <energy_score>  (1374) 
42.747080501461255

>  <distance_score>  (1374) 
13.466336792849985

>  <path>  (1374) 
/opt/xchem-fragalysis-2/maxwin/BulkDock/SCRATCH/511024/C81147-P7/C81147-P7.minimised.mol

>  <scratch_subdir>  (1374) 
/opt/xchem-fragalysis-2/maxwin/BulkDock/SCRATCH/511024/C81147-P7

>  <fragmenstein_runtime>  (1374) 
16.91463351249695

>  <fragmenstein_outcome>  (1374) 
too moved

>  <fragmenstein_mode>  (1374) 
expansion

>  <fragmenstein_error>  (1374) 


$$$$
C81153-P97
     RDKit          3D

 52 54  0  0  0  0  0  0  0  0999 V2000
    8.4461   -4.5481   25.8223 C   0  0  0  0  0  0  0  0  0  0  0  0
    8.8618   -3.9731   24.4685 C   0  0  0  0  0  0  0  0  0  0  0  0
    9.4833   -5.0694   23.6021 C   0  0  0  0  0  0  0  0  0  0  0  0
    7.6548   -3.3214   23.7604 C   0  0  0  0  0  0  0  0  0  0  0  0
    7.2016   -3.8010   22.7559 O   0  0  0  0  0  0  0  0  0  0  0  0
    7.2221   -2.1998   24.5287 N   0  0  0  0  0  0  0  0  0  0  0  0
    7.9011   -0.9409   24.0457 C   0  0  0  0  0  0  0  0  0  0  0  0
    7.5542    0.2637   24.8886 C   0  0  0  0  0  0  0  0  0  0  0  0
    6.1472   -0.0975   25.2591 C   0  0  0  0  0  0  0  0  0  0  0  0
    5.1330    1.0134   25.0037 C   0  0  0  0  0  0  0  0  0  0  0  0
    3.6485    0.6410   25.2510 C   0  0  0  0  0  0  0  0  0  0  0  0
    3.1918    0.3899   26.6164 N   0  0  0  0  0  0  0  0  0  0  0  0
    2.0998    0.9789   27.3807 C   0  0  0  0  0  0  0  0  0  0  0  0
    1.3506    1.8755   27.1097 O   0  0  0  0  0  0  0  0  0  0  0  0
    1.8770    0.2341   28.7232 C   0  0  0  0  0  0  0  0  0  0  0  0
    0.3926    0.0941   29.1710 C   0  0  0  0  0  0  0  0  0  0  0  0
   -0.3890    1.2733   29.8377 C   0  0  0  0  0  0  0  0  0  0  0  0
   -0.9524    0.2559   30.7670 C   0  0  0  0  0  0  0  0  0  0  0  0
   -1.5931    0.5165   32.1010 C   0  0  0  0  0  0  0  0  0  0  0  0
   -2.3999   -0.0707   30.9798 C   0  0  0  0  0  0  0  0  0  0  0  0
    0.1612   -0.6934   30.4946 C   0  0  0  0  0  0  0  0  0  0  0  0
    6.0082   -1.3315   24.3952 C   0  0  0  0  0  0  0  0  0  0  0  0
    7.6333   -5.2741   25.7096 H   0  0  0  0  0  0  0  0  0  0  0  0
    8.0939   -3.7626   26.4991 H   0  0  0  0  0  0  0  0  0  0  0  0
    9.2887   -5.0500   26.3093 H   0  0  0  0  0  0  0  0  0  0  0  0
    9.6272   -3.2050   24.6281 H   0  0  0  0  0  0  0  0  0  0  0  0
    8.7765   -5.8873   23.4235 H   0  0  0  0  0  0  0  0  0  0  0  0
   10.3726   -5.4890   24.0841 H   0  0  0  0  0  0  0  0  0  0  0  0
    9.7856   -4.6734   22.6268 H   0  0  0  0  0  0  0  0  0  0  0  0
    7.7341   -0.7793   22.9662 H   0  0  0  0  0  0  0  0  0  0  0  0
    8.9836   -1.1066   24.1233 H   0  0  0  0  0  0  0  0  0  0  0  0
    7.6605    1.1954   24.3251 H   0  0  0  0  0  0  0  0  0  0  0  0
    8.1863    0.3240   25.7814 H   0  0  0  0  0  0  0  0  0  0  0  0
    6.1102   -0.3820   26.3190 H   0  0  0  0  0  0  0  0  0  0  0  0
    5.3847    1.8767   25.6322 H   0  0  0  0  0  0  0  0  0  0  0  0
    5.2209    1.3458   23.9611 H   0  0  0  0  0  0  0  0  0  0  0  0
    3.0266    1.4564   24.8641 H   0  0  0  0  0  0  0  0  0  0  0  0
    3.3953   -0.2543   24.6747 H   0  0  0  0  0  0  0  0  0  0  0  0
    3.5573   -0.4078   27.1222 H   0  0  0  0  0  0  0  0  0  0  0  0
    2.2929   -0.7770   28.6458 H   0  0  0  0  0  0  0  0  0  0  0  0
    2.4497    0.7682   29.4903 H   0  0  0  0  0  0  0  0  0  0  0  0
   -0.1815   -0.3530   28.3434 H   0  0  0  0  0  0  0  0  0  0  0  0
   -1.0911    1.7796   29.1703 H   0  0  0  0  0  0  0  0  0  0  0  0
    0.2460    2.0198   30.3273 H   0  0  0  0  0  0  0  0  0  0  0  0
   -1.7822    1.5451   32.3827 H   0  0  0  0  0  0  0  0  0  0  0  0
   -1.3301   -0.1317   32.9292 H   0  0  0  0  0  0  0  0  0  0  0  0
   -2.6822   -1.1136   31.0521 H   0  0  0  0  0  0  0  0  0  0  0  0
   -3.1272    0.5672   30.4948 H   0  0  0  0  0  0  0  0  0  0  0  0
   -0.1081   -1.7447   30.3602 H   0  0  0  0  0  0  0  0  0  0  0  0
    0.9815   -0.6251   31.2184 H   0  0  0  0  0  0  0  0  0  0  0  0
    5.7320   -1.1524   23.3417 H   0  0  0  0  0  0  0  0  0  0  0  0
    5.1846   -1.9489   24.7787 H   0  0  0  0  0  0  0  0  0  0  0  0
  1  2  1  0
  2  3  1  0
  2  4  1  0
  4  5  2  0
  4  6  1  0
  6  7  1  0
  7  8  1  0
  8  9  1  0
  9 10  1  0
 10 11  1  0
 11 12  1  0
 12 13  1  0
 13 14  2  0
 13 15  1  0
 15 16  1  0
 16 17  1  0
 17 18  1  0
 18 19  1  0
 19 20  1  0
 18 21  1  0
  9 22  1  0
 22  6  1  0
 21 16  1  0
 20 18  1  0
  1 23  1  0
  1 24  1  0
  1 25  1  0
  2 26  1  0
  3 27  1  0
  3 28  1  0
  3 29  1  0
  7 30  1  0
  7 31  1  0
  8 32  1  0
  8 33  1  0
  9 34  1  0
 10 35  1  0
 10 36  1  0
 11 37  1  0
 11 38  1  0
 12 39  1  0
 15 40  1  0
 15 41  1  0
 16 42  1  0
 17 43  1  0
 17 44  1  0
 19 45  1  0
 19 46  1  0
 20 47  1  0
 20 48  1  0
 21 49  1  0
 21 50  1  0
 22 51  1  0
 22 52  1  0
M  END
>  <Energy>  (1375) 
70.82854707966834

>  <compound_id>  (1375) 
81153

>  <target_id>  (1375) 
1

>  <reference_id>  (1375) 
97

>  <inspiration_ids>  (1375) 
[97, 7]

>  <energy_score>  (1375) 
34.220743305395445

>  <distance_score>  (1375) 
14.464760534092797

>  <path>  (1375) 
/opt/xchem-fragalysis-2/maxwin/BulkDock/SCRATCH/511024/C81153-P97/C81153-P97.minimised.mol

>  <scratch_subdir>  (1375) 
/opt/xchem-fragalysis-2/maxwin/BulkDock/SCRATCH/511024/C81153-P97

>  <fragmenstein_runtime>  (1375) 
24.68914294242859

>  <fragmenstein_outcome>  (1375) 
too moved

>  <fragmenstein_mode>  (1375) 
expansion

>  <fragmenstein_error>  (1375) 


$$$$
C81153-P7
     RDKit          3D

 52 54  0  0  0  0  0  0  0  0999 V2000
    9.9159    5.8012   15.9893 C   0  0  0  0  0  0  0  0  0  0  0  0
    9.2625    4.7892   16.9312 C   0  0  0  0  0  0  0  0  0  0  0  0
    9.3199    3.3913   16.3184 C   0  0  0  0  0  0  0  0  0  0  0  0
    7.8084    5.1824   17.2514 C   0  0  0  0  0  0  0  0  0  0  0  0
    7.2564    6.0388   16.6116 O   0  0  0  0  0  0  0  0  0  0  0  0
    7.3097    4.3262   18.2814 N   0  0  0  0  0  0  0  0  0  0  0  0
    7.5053    4.9633   19.6313 C   0  0  0  0  0  0  0  0  0  0  0  0
    7.1174    4.0207   20.7538 C   0  0  0  0  0  0  0  0  0  0  0  0
    5.8707    3.4432   20.1676 C   0  0  0  0  0  0  0  0  0  0  0  0
    4.5624    3.8232   20.8760 C   0  0  0  0  0  0  0  0  0  0  0  0
    4.2685    3.2021   22.2571 C   0  0  0  0  0  0  0  0  0  0  0  0
    3.0350    3.7357   22.8528 N   0  0  0  0  0  0  0  0  0  0  0  0
    2.1924    3.2211   23.9264 C   0  0  0  0  0  0  0  0  0  0  0  0
    2.2500    2.1959   24.5381 O   0  0  0  0  0  0  0  0  0  0  0  0
    1.1037    4.2628   24.2481 C   0  0  0  0  0  0  0  0  0  0  0  0
    0.0475    4.0250   25.3568 C   0  0  0  0  0  0  0  0  0  0  0  0
   -1.1625    3.0495   25.2085 C   0  0  0  0  0  0  0  0  0  0  0  0
   -1.1314    2.9770   26.6915 C   0  0  0  0  0  0  0  0  0  0  0  0
   -2.1954    3.5393   27.5777 C   0  0  0  0  0  0  0  0  0  0  0  0
   -1.8821    2.0661   27.6097 C   0  0  0  0  0  0  0  0  0  0  0  0
    0.3228    3.3276   26.7218 C   0  0  0  0  0  0  0  0  0  0  0  0
    5.9298    4.1451   18.8122 C   0  0  0  0  0  0  0  0  0  0  0  0
    9.8801    6.8093   16.4165 H   0  0  0  0  0  0  0  0  0  0  0  0
    9.4078    5.8327   15.0190 H   0  0  0  0  0  0  0  0  0  0  0  0
   10.9665    5.5471   15.8137 H   0  0  0  0  0  0  0  0  0  0  0  0
    9.8332    4.7980   17.8625 H   0  0  0  0  0  0  0  0  0  0  0  0
   10.3528    3.1042   16.0956 H   0  0  0  0  0  0  0  0  0  0  0  0
    8.7459    3.3527   15.3873 H   0  0  0  0  0  0  0  0  0  0  0  0
    8.9026    2.6354   16.9910 H   0  0  0  0  0  0  0  0  0  0  0  0
    8.5723    5.1984   19.7295 H   0  0  0  0  0  0  0  0  0  0  0  0
    7.0190    5.9536   19.6946 H   0  0  0  0  0  0  0  0  0  0  0  0
    7.8734    3.2448   20.8981 H   0  0  0  0  0  0  0  0  0  0  0  0
    6.9797    4.5466   21.7027 H   0  0  0  0  0  0  0  0  0  0  0  0
    5.9590    2.3567   20.0696 H   0  0  0  0  0  0  0  0  0  0  0  0
    3.7238    3.5640   20.2150 H   0  0  0  0  0  0  0  0  0  0  0  0
    4.5200    4.9163   20.9848 H   0  0  0  0  0  0  0  0  0  0  0  0
    4.1680    2.1142   22.1906 H   0  0  0  0  0  0  0  0  0  0  0  0
    5.0772    3.4235   22.9605 H   0  0  0  0  0  0  0  0  0  0  0  0
    2.7429    4.6792   22.6252 H   0  0  0  0  0  0  0  0  0  0  0  0
    0.5676    4.4778   23.3147 H   0  0  0  0  0  0  0  0  0  0  0  0
    1.6489    5.1774   24.5214 H   0  0  0  0  0  0  0  0  0  0  0  0
   -0.3495    5.0423   25.5406 H   0  0  0  0  0  0  0  0  0  0  0  0
   -0.9320    2.1177   24.6939 H   0  0  0  0  0  0  0  0  0  0  0  0
   -2.0503    3.4917   24.7474 H   0  0  0  0  0  0  0  0  0  0  0  0
   -1.8651    4.1829   28.3800 H   0  0  0  0  0  0  0  0  0  0  0  0
   -3.1263    3.8504   27.1170 H   0  0  0  0  0  0  0  0  0  0  0  0
   -1.3629    1.6732   28.4751 H   0  0  0  0  0  0  0  0  0  0  0  0
   -2.5989    1.3853   27.1691 H   0  0  0  0  0  0  0  0  0  0  0  0
    0.9792    2.4532   26.6929 H   0  0  0  0  0  0  0  0  0  0  0  0
    0.6540    3.9963   27.5209 H   0  0  0  0  0  0  0  0  0  0  0  0
    5.3682    5.0953   18.7605 H   0  0  0  0  0  0  0  0  0  0  0  0
    5.4189    3.5259   18.0650 H   0  0  0  0  0  0  0  0  0  0  0  0
  1  2  1  0
  2  3  1  0
  2  4  1  0
  4  5  2  0
  4  6  1  0
  6  7  1  0
  7  8  1  0
  8  9  1  0
  9 10  1  0
 10 11  1  0
 11 12  1  0
 12 13  1  0
 13 14  2  0
 13 15  1  0
 15 16  1  0
 16 17  1  0
 17 18  1  0
 18 19  1  0
 19 20  1  0
 18 21  1  0
  9 22  1  0
 22  6  1  0
 21 16  1  0
 20 18  1  0
  1 23  1  0
  1 24  1  0
  1 25  1  0
  2 26  1  0
  3 27  1  0
  3 28  1  0
  3 29  1  0
  7 30  1  0
  7 31  1  0
  8 32  1  0
  8 33  1  0
  9 34  1  0
 10 35  1  0
 10 36  1  0
 11 37  1  0
 11 38  1  0
 12 39  1  0
 15 40  1  0
 15 41  1  0
 16 42  1  0
 17 43  1  0
 17 44  1  0
 19 45  1  0
 19 46  1  0
 20 47  1  0
 20 48  1  0
 21 49  1  0
 21 50  1  0
 22 51  1  0
 22 52  1  0
M  END
>  <Energy>  (1376) 
75.828799916817701

>  <compound_id>  (1376) 
81153

>  <target_id>  (1376) 
1

>  <reference_id>  (1376) 
7

>  <inspiration_ids>  (1376) 
[97, 7]

>  <energy_score>  (1376) 
39.220996142547676

>  <distance_score>  (1376) 
14.202208268046459

>  <path>  (1376) 
/opt/xchem-fragalysis-2/maxwin/BulkDock/SCRATCH/511024/C81153-P7/C81153-P7.minimised.mol

>  <scratch_subdir>  (1376) 
/opt/xchem-fragalysis-2/maxwin/BulkDock/SCRATCH/511024/C81153-P7

>  <fragmenstein_runtime>  (1376) 
20.08108377456665

>  <fragmenstein_outcome>  (1376) 
too moved

>  <fragmenstein_mode>  (1376) 
expansion

>  <fragmenstein_error>  (1376) 


$$$$
C81157-P97
     RDKit          3D

 47 49  0  0  0  0  0  0  0  0999 V2000
    5.2026   -2.8420   29.3641 C   0  0  0  0  0  0  0  0  0  0  0  0
    4.3850   -1.6169   29.0274 C   0  0  0  0  0  0  0  0  0  0  0  0
    4.2166   -0.7734   29.8705 O   0  0  0  0  0  0  0  0  0  0  0  0
    3.9721   -1.6588   27.6592 N   0  0  0  0  0  0  0  0  0  0  0  0
    2.6222   -2.3148   27.5391 C   0  0  0  0  0  0  0  0  0  0  0  0
    1.4700   -1.4436   28.0040 C   0  0  0  0  0  0  0  0  0  0  0  0
    1.9503   -0.1679   27.4183 C   0  0  0  0  0  0  0  0  0  0  0  0
    3.3000   -0.6295   26.8119 C   0  0  0  0  0  0  0  0  0  0  0  0
    3.6862   -0.5034   25.2735 C   0  0  0  0  0  0  0  0  0  0  0  0
    3.7831   -1.6010   24.0496 C   0  0  0  0  0  0  0  0  0  0  0  0
    4.5868   -0.9711   22.6338 N   0  0  0  0  0  0  0  0  0  0  0  0
    4.3234    0.6497   21.6990 C   0  0  0  0  0  0  0  0  0  0  0  0
    3.4484    1.5504   21.8563 O   0  0  0  0  0  0  0  0  0  0  0  0
    5.5548    1.1878   20.4378 C   0  0  0  0  0  0  0  0  0  0  0  0
    6.1546    1.0893   19.0776 N   0  0  0  0  0  0  0  0  0  0  0  0
    7.2966    0.3257   18.8568 C   0  0  0  0  0  0  0  0  0  0  0  0
    7.7941   -0.4924   19.6243 O   0  0  0  0  0  0  0  0  0  0  0  0
    7.9100    0.7057   17.4965 C   0  0  0  0  0  0  0  0  0  0  0  0
    7.0124    1.7859   17.0509 C   0  0  0  0  0  0  0  0  0  0  0  0
    7.1247    2.5178   15.8852 C   0  0  0  0  0  0  0  0  0  0  0  0
    6.1796    3.5072   15.6789 C   0  0  0  0  0  0  0  0  0  0  0  0
    5.1724    3.7389   16.6340 C   0  0  0  0  0  0  0  0  0  0  0  0
    5.0828    2.9878   17.8136 C   0  0  0  0  0  0  0  0  0  0  0  0
    6.0097    1.9957   18.0076 C   0  0  0  0  0  0  0  0  0  0  0  0
    5.7133   -3.2372   28.4851 H   0  0  0  0  0  0  0  0  0  0  0  0
    4.5534   -3.6049   29.8004 H   0  0  0  0  0  0  0  0  0  0  0  0
    5.9712   -2.5681   30.0936 H   0  0  0  0  0  0  0  0  0  0  0  0
    2.4912   -2.7004   26.5216 H   0  0  0  0  0  0  0  0  0  0  0  0
    2.6226   -3.1991   28.1871 H   0  0  0  0  0  0  0  0  0  0  0  0
    0.5080   -1.7818   27.6145 H   0  0  0  0  0  0  0  0  0  0  0  0
    1.4100   -1.3890   29.0958 H   0  0  0  0  0  0  0  0  0  0  0  0
    1.2479    0.3092   26.7478 H   0  0  0  0  0  0  0  0  0  0  0  0
    2.1224    0.5550   28.2274 H   0  0  0  0  0  0  0  0  0  0  0  0
    3.8951    0.2420   27.1506 H   0  0  0  0  0  0  0  0  0  0  0  0
    3.1590    0.3915   24.9386 H   0  0  0  0  0  0  0  0  0  0  0  0
    4.7191   -0.1609   25.3642 H   0  0  0  0  0  0  0  0  0  0  0  0
    4.5188   -2.3033   24.4260 H   0  0  0  0  0  0  0  0  0  0  0  0
    2.9079   -2.1626   23.7589 H   0  0  0  0  0  0  0  0  0  0  0  0
    5.3352   -1.5171   22.2039 H   0  0  0  0  0  0  0  0  0  0  0  0
    5.2601    2.2525   20.4517 H   0  0  0  0  0  0  0  0  0  0  0  0
    6.4714    1.2427   21.0095 H   0  0  0  0  0  0  0  0  0  0  0  0
    7.8856   -0.1091   16.7738 H   0  0  0  0  0  0  0  0  0  0  0  0
    8.9240    1.0854   17.6232 H   0  0  0  0  0  0  0  0  0  0  0  0
    7.9092    2.3286   15.1610 H   0  0  0  0  0  0  0  0  0  0  0  0
    6.2100    4.1121   14.7755 H   0  0  0  0  0  0  0  0  0  0  0  0
    4.4413    4.5250   16.4508 H   0  0  0  0  0  0  0  0  0  0  0  0
    4.2955    3.1969   18.5295 H   0  0  0  0  0  0  0  0  0  0  0  0
  1  2  1  0
  2  3  2  0
  2  4  1  0
  4  5  1  0
  5  6  1  0
  6  7  1  0
  7  8  1  0
  8  9  1  0
  9 10  1  0
 10 11  1  0
 11 12  1  0
 12 13  2  0
 12 14  1  0
 14 15  1  0
 15 16  1  0
 16 17  2  0
 16 18  1  0
 18 19  1  0
 19 20  2  0
 20 21  1  0
 21 22  2  0
 22 23  1  0
 23 24  2  0
  8  4  1  0
 24 15  1  0
 24 19  1  0
  1 25  1  0
  1 26  1  0
  1 27  1  0
  5 28  1  0
  5 29  1  0
  6 30  1  0
  6 31  1  0
  7 32  1  0
  7 33  1  0
  8 34  1  0
  9 35  1  0
  9 36  1  0
 10 37  1  0
 10 38  1  0
 11 39  1  0
 14 40  1  0
 14 41  1  0
 18 42  1  0
 18 43  1  0
 20 44  1  0
 21 45  1  0
 22 46  1  0
 23 47  1  0
M  END
>  <Energy>  (1377) 
268.43776764734071

>  <compound_id>  (1377) 
81157

>  <target_id>  (1377) 
1

>  <reference_id>  (1377) 
97

>  <inspiration_ids>  (1377) 
[97, 7]

>  <energy_score>  (1377) 
226.3108381791082

>  <distance_score>  (1377) 
13.594821426379387

>  <path>  (1377) 
/opt/xchem-fragalysis-2/maxwin/BulkDock/SCRATCH/511024/C81157-P97/C81157-P97.minimised.mol

>  <scratch_subdir>  (1377) 
/opt/xchem-fragalysis-2/maxwin/BulkDock/SCRATCH/511024/C81157-P97

>  <fragmenstein_runtime>  (1377) 
20.566301822662354

>  <fragmenstein_outcome>  (1377) 
too moved

>  <fragmenstein_mode>  (1377) 
expansion

>  <fragmenstein_error>  (1377) 


$$$$
C81157-P7
     RDKit          3D

 47 49  0  0  0  0  0  0  0  0999 V2000
    2.7854    2.8172   25.5244 C   0  0  0  0  0  0  0  0  0  0  0  0
    2.8649    4.0931   24.7101 C   0  0  0  0  0  0  0  0  0  0  0  0
    2.8910    5.1548   25.2757 O   0  0  0  0  0  0  0  0  0  0  0  0
    2.8036    3.7841   23.3136 N   0  0  0  0  0  0  0  0  0  0  0  0
    1.3693    3.6533   22.8738 C   0  0  0  0  0  0  0  0  0  0  0  0
    0.6369    4.9591   22.8034 C   0  0  0  0  0  0  0  0  0  0  0  0
    1.6615    5.6543   21.9865 C   0  0  0  0  0  0  0  0  0  0  0  0
    2.8654    4.6896   22.0933 C   0  0  0  0  0  0  0  0  0  0  0  0
    3.3639    4.0404   20.7399 C   0  0  0  0  0  0  0  0  0  0  0  0
    4.7788    3.4090   20.7953 C   0  0  0  0  0  0  0  0  0  0  0  0
    5.4139    3.1655   19.4886 N   0  0  0  0  0  0  0  0  0  0  0  0
    6.6968    2.5441   19.1464 C   0  0  0  0  0  0  0  0  0  0  0  0
    7.5159    2.0062   19.8412 O   0  0  0  0  0  0  0  0  0  0  0  0
    6.9383    2.5900   17.5911 C   0  0  0  0  0  0  0  0  0  0  0  0
    8.3348    2.4288   17.1798 N   0  0  0  0  0  0  0  0  0  0  0  0
    9.2694    3.4602   17.3258 C   0  0  0  0  0  0  0  0  0  0  0  0
    9.0546    4.5717   17.7864 O   0  0  0  0  0  0  0  0  0  0  0  0
   10.6142    2.9632   16.7854 C   0  0  0  0  0  0  0  0  0  0  0  0
   10.2779    1.5876   16.3003 C   0  0  0  0  0  0  0  0  0  0  0  0
   11.1131    0.6596   15.6979 C   0  0  0  0  0  0  0  0  0  0  0  0
   10.5451   -0.5345   15.2636 C   0  0  0  0  0  0  0  0  0  0  0  0
    9.1700   -0.7696   15.4321 C   0  0  0  0  0  0  0  0  0  0  0  0
    8.3474    0.1561   16.0848 C   0  0  0  0  0  0  0  0  0  0  0  0
    8.9182    1.3320   16.5221 C   0  0  0  0  0  0  0  0  0  0  0  0
    3.5837    2.8173   26.2714 H   0  0  0  0  0  0  0  0  0  0  0  0
    1.8158    2.7795   26.0293 H   0  0  0  0  0  0  0  0  0  0  0  0
    2.8856    1.9256   24.9013 H   0  0  0  0  0  0  0  0  0  0  0  0
    1.2758    3.0480   21.9608 H   0  0  0  0  0  0  0  0  0  0  0  0
    0.8549    3.0694   23.6481 H   0  0  0  0  0  0  0  0  0  0  0  0
    0.5106    5.4254   23.7853 H   0  0  0  0  0  0  0  0  0  0  0  0
   -0.3370    4.8808   22.3139 H   0  0  0  0  0  0  0  0  0  0  0  0
    1.3470    5.7946   20.9471 H   0  0  0  0  0  0  0  0  0  0  0  0
    1.8931    6.6403   22.4041 H   0  0  0  0  0  0  0  0  0  0  0  0
    3.7007    5.3571   22.3601 H   0  0  0  0  0  0  0  0  0  0  0  0
    2.6569    3.2875   20.3757 H   0  0  0  0  0  0  0  0  0  0  0  0
    3.3781    4.8341   19.9814 H   0  0  0  0  0  0  0  0  0  0  0  0
    5.4661    4.0603   21.3454 H   0  0  0  0  0  0  0  0  0  0  0  0
    4.7464    2.4473   21.3138 H   0  0  0  0  0  0  0  0  0  0  0  0
    5.0224    3.5958   18.6596 H   0  0  0  0  0  0  0  0  0  0  0  0
    6.3164    1.8161   17.1322 H   0  0  0  0  0  0  0  0  0  0  0  0
    6.6071    3.5677   17.2224 H   0  0  0  0  0  0  0  0  0  0  0  0
   10.9336    3.6052   15.9605 H   0  0  0  0  0  0  0  0  0  0  0  0
   11.3500    2.9413   17.5921 H   0  0  0  0  0  0  0  0  0  0  0  0
   12.1652    0.8668   15.5312 H   0  0  0  0  0  0  0  0  0  0  0  0
   11.1500   -1.2676   14.7326 H   0  0  0  0  0  0  0  0  0  0  0  0
    8.7342   -1.6713   15.0043 H   0  0  0  0  0  0  0  0  0  0  0  0
    7.2862   -0.0394   16.1895 H   0  0  0  0  0  0  0  0  0  0  0  0
  1  2  1  0
  2  3  2  0
  2  4  1  0
  4  5  1  0
  5  6  1  0
  6  7  1  0
  7  8  1  0
  8  9  1  0
  9 10  1  0
 10 11  1  0
 11 12  1  0
 12 13  2  0
 12 14  1  0
 14 15  1  0
 15 16  1  0
 16 17  2  0
 16 18  1  0
 18 19  1  0
 19 20  2  0
 20 21  1  0
 21 22  2  0
 22 23  1  0
 23 24  2  0
  8  4  1  0
 24 15  1  0
 24 19  1  0
  1 25  1  0
  1 26  1  0
  1 27  1  0
  5 28  1  0
  5 29  1  0
  6 30  1  0
  6 31  1  0
  7 32  1  0
  7 33  1  0
  8 34  1  0
  9 35  1  0
  9 36  1  0
 10 37  1  0
 10 38  1  0
 11 39  1  0
 14 40  1  0
 14 41  1  0
 18 42  1  0
 18 43  1  0
 20 44  1  0
 21 45  1  0
 22 46  1  0
 23 47  1  0
M  END
>  <Energy>  (1378) 
98.466758522150428

>  <compound_id>  (1378) 
81157

>  <target_id>  (1378) 
1

>  <reference_id>  (1378) 
7

>  <inspiration_ids>  (1378) 
[97, 7]

>  <energy_score>  (1378) 
56.33982905391872

>  <distance_score>  (1378) 
14.06055071341291

>  <path>  (1378) 
/opt/xchem-fragalysis-2/maxwin/BulkDock/SCRATCH/511024/C81157-P7/C81157-P7.minimised.mol

>  <scratch_subdir>  (1378) 
/opt/xchem-fragalysis-2/maxwin/BulkDock/SCRATCH/511024/C81157-P7

>  <fragmenstein_runtime>  (1378) 
23.167537927627563

>  <fragmenstein_outcome>  (1378) 
too moved

>  <fragmenstein_mode>  (1378) 
expansion

>  <fragmenstein_error>  (1378) 


$$$$
C30294-P97
     RDKit          3D

 22 22  0  0  0  0  0  0  0  0999 V2000
   14.7576    3.8975   13.8156 C   0  0  0  0  0  0  0  0  0  0  0  0
   15.4607    2.8900   14.6987 C   0  0  0  0  0  0  0  0  0  0  0  0
   16.4110    3.1382   15.3252 O   0  0  0  0  0  0  0  0  0  0  0  0
   14.6555    1.5782   14.5794 N   0  0  0  0  0  0  0  0  0  0  0  0
   14.9078    0.2706   15.1332 C   0  0  0  0  0  0  0  0  0  0  0  0
   16.1481   -0.3588   14.5053 C   0  0  0  0  0  0  0  0  0  0  0  0
   13.6723   -0.5731   14.9326 C   0  0  0  0  0  0  0  0  0  0  0  0
   13.3221   -1.7518   15.6363 C   0  0  0  0  0  0  0  0  0  0  0  0
   12.1207   -2.1451   15.1022 C   0  0  0  0  0  0  0  0  0  0  0  0
   11.8054   -1.2216   14.1484 N   0  0  0  0  0  0  0  0  0  0  0  0
   12.7332   -0.2510   14.0207 N   0  0  0  0  0  0  0  0  0  0  0  0
   15.2678    4.8625   13.8880 H   0  0  0  0  0  0  0  0  0  0  0  0
   14.7858    3.5642   12.7746 H   0  0  0  0  0  0  0  0  0  0  0  0
   13.7222    4.0251   14.1431 H   0  0  0  0  0  0  0  0  0  0  0  0
   13.9278    1.6889   13.8776 H   0  0  0  0  0  0  0  0  0  0  0  0
   15.0883    0.4116   16.2052 H   0  0  0  0  0  0  0  0  0  0  0  0
   16.0267   -0.4825   13.4228 H   0  0  0  0  0  0  0  0  0  0  0  0
   16.3494   -1.3466   14.9338 H   0  0  0  0  0  0  0  0  0  0  0  0
   17.0316    0.2675   14.6690 H   0  0  0  0  0  0  0  0  0  0  0  0
   13.8785   -2.2489   16.4189 H   0  0  0  0  0  0  0  0  0  0  0  0
   11.4725   -2.9868   15.3015 H   0  0  0  0  0  0  0  0  0  0  0  0
   10.9720   -1.1996   13.5582 H   0  0  0  0  0  0  0  0  0  0  0  0
  1  2  1  0
  2  3  2  0
  2  4  1  0
  4  5  1  0
  5  6  1  0
  5  7  1  0
  7  8  1  0
  8  9  2  0
  9 10  1  0
 10 11  1  0
 11  7  2  0
  1 12  1  0
  1 13  1  0
  1 14  1  0
  4 15  1  0
  5 16  1  0
  6 17  1  0
  6 18  1  0
  6 19  1  0
  8 20  1  0
  9 21  1  0
 10 22  1  0
M  END
>  <Energy>  (1379) 
5.4721390169946815

>  <compound_id>  (1379) 
30294

>  <target_id>  (1379) 
1

>  <reference_id>  (1379) 
97

>  <inspiration_ids>  (1379) 
[97, 7]

>  <energy_score>  (1379) 
-5.073274160016922

>  <distance_score>  (1379) 
21.67220989238648

>  <path>  (1379) 
/opt/xchem-fragalysis-2/maxwin/BulkDock/SCRATCH/511024/C30294-P97/C30294-P97.minimised.mol

>  <scratch_subdir>  (1379) 
/opt/xchem-fragalysis-2/maxwin/BulkDock/SCRATCH/511024/C30294-P97

>  <fragmenstein_runtime>  (1379) 
3.744755983352661

>  <fragmenstein_outcome>  (1379) 
too moved

>  <fragmenstein_mode>  (1379) 
expansion

>  <fragmenstein_error>  (1379) 


$$$$
C30294-P7
     RDKit          3D

 22 22  0  0  0  0  0  0  0  0999 V2000
   15.1776    0.6050   19.0820 C   0  0  0  0  0  0  0  0  0  0  0  0
   14.7391    1.2024   17.7631 C   0  0  0  0  0  0  0  0  0  0  0  0
   14.2185    2.2406   17.6705 O   0  0  0  0  0  0  0  0  0  0  0  0
   15.1342    0.1792   16.6738 N   0  0  0  0  0  0  0  0  0  0  0  0
   14.8831    0.1802   15.2456 C   0  0  0  0  0  0  0  0  0  0  0  0
   16.1019   -0.3520   14.4987 C   0  0  0  0  0  0  0  0  0  0  0  0
   13.6423   -0.6280   14.9617 C   0  0  0  0  0  0  0  0  0  0  0  0
   13.2232   -1.8379   15.5753 C   0  0  0  0  0  0  0  0  0  0  0  0
   12.0324   -2.1554   14.9724 C   0  0  0  0  0  0  0  0  0  0  0  0
   11.7915   -1.1660   14.0643 N   0  0  0  0  0  0  0  0  0  0  0  0
   12.7688   -0.2394   14.0176 N   0  0  0  0  0  0  0  0  0  0  0  0
   16.2576    0.4348   19.0754 H   0  0  0  0  0  0  0  0  0  0  0  0
   14.6482   -0.3351   19.2597 H   0  0  0  0  0  0  0  0  0  0  0  0
   14.9376    1.2992   19.8927 H   0  0  0  0  0  0  0  0  0  0  0  0
   15.4967   -0.6575   17.1117 H   0  0  0  0  0  0  0  0  0  0  0  0
   14.7039    1.2232   14.9580 H   0  0  0  0  0  0  0  0  0  0  0  0
   15.9363   -0.3368   13.4160 H   0  0  0  0  0  0  0  0  0  0  0  0
   16.9870    0.2552   14.7175 H   0  0  0  0  0  0  0  0  0  0  0  0
   16.3305   -1.3848   14.7870 H   0  0  0  0  0  0  0  0  0  0  0  0
   13.7182   -2.3968   16.3557 H   0  0  0  0  0  0  0  0  0  0  0  0
   11.3401   -2.9751   15.1030 H   0  0  0  0  0  0  0  0  0  0  0  0
   10.9815   -1.0716   13.4504 H   0  0  0  0  0  0  0  0  0  0  0  0
  1  2  1  0
  2  3  2  0
  2  4  1  0
  4  5  1  0
  5  6  1  0
  5  7  1  0
  7  8  1  0
  8  9  2  0
  9 10  1  0
 10 11  1  0
 11  7  2  0
  1 12  1  0
  1 13  1  0
  1 14  1  0
  4 15  1  0
  5 16  1  0
  6 17  1  0
  6 18  1  0
  6 19  1  0
  8 20  1  0
  9 21  1  0
 10 22  1  0
M  END
>  <Energy>  (1380) 
11.884137717578225

>  <compound_id>  (1380) 
30294

>  <target_id>  (1380) 
1

>  <reference_id>  (1380) 
7

>  <inspiration_ids>  (1380) 
[97, 7]

>  <energy_score>  (1380) 
1.3387245405654085

>  <distance_score>  (1380) 
19.737492064856777

>  <path>  (1380) 
/opt/xchem-fragalysis-2/maxwin/BulkDock/SCRATCH/511024/C30294-P7/C30294-P7.minimised.mol

>  <scratch_subdir>  (1380) 
/opt/xchem-fragalysis-2/maxwin/BulkDock/SCRATCH/511024/C30294-P7

>  <fragmenstein_runtime>  (1380) 
2.7253060340881348

>  <fragmenstein_outcome>  (1380) 
too moved

>  <fragmenstein_mode>  (1380) 
expansion

>  <fragmenstein_error>  (1380) 


$$$$
C30349-P97
     RDKit          3D

 44 46  0  0  0  0  0  0  0  0999 V2000
    4.8732    2.5422   19.3607 O   0  0  0  0  0  0  0  0  0  0  0  0
    5.7133    1.7300   19.6206 C   0  0  0  0  0  0  0  0  0  0  0  0
    5.5801    0.6463   20.7440 C   0  0  0  0  0  0  0  0  0  0  0  0
    4.2820    0.3303   21.6648 N   0  0  0  0  0  0  0  0  0  0  0  0
    3.2557    1.7355   22.1507 C   0  0  0  0  0  0  0  0  0  0  0  0
    2.6379    1.8866   23.9354 C   0  0  0  0  0  0  0  0  0  0  0  0
    3.2217    0.7844   25.1970 C   0  0  0  0  0  0  0  0  0  0  0  0
    2.2399    0.7142   26.5088 C   0  0  0  0  0  0  0  0  0  0  0  0
    1.5263    1.7029   27.1798 C   0  0  0  0  0  0  0  0  0  0  0  0
    0.7431    1.0372   28.1500 C   0  0  0  0  0  0  0  0  0  0  0  0
    0.9402   -0.2805   28.1345 N   0  0  0  0  0  0  0  0  0  0  0  0
    1.8533   -0.4572   27.1443 N   0  0  0  0  0  0  0  0  0  0  0  0
    4.0291   -0.5859   24.7753 C   0  0  0  0  0  0  0  0  0  0  0  0
    4.4093   -1.0960   23.0897 C   0  0  0  0  0  0  0  0  0  0  0  0
    7.0892    1.5568   19.0845 N   0  0  0  0  0  0  0  0  0  0  0  0
    7.8628    2.3768   18.1556 C   0  0  0  0  0  0  0  0  0  0  0  0
    7.9949    1.7534   16.7597 C   0  0  0  0  0  0  0  0  0  0  0  0
    9.3417    1.2730   16.2772 C   0  0  0  0  0  0  0  0  0  0  0  0
    9.6230    0.0575   15.6746 C   0  0  0  0  0  0  0  0  0  0  0  0
   10.9826   -0.0613   15.2697 C   0  0  0  0  0  0  0  0  0  0  0  0
   11.6928    1.0848   15.5364 C   0  0  0  0  0  0  0  0  0  0  0  0
   10.7105    2.3042   16.2306 S   0  0  0  0  0  0  0  0  0  0  0  0
    5.8827   -0.3289   20.3365 H   0  0  0  0  0  0  0  0  0  0  0  0
    6.4183    1.0304   21.2897 H   0  0  0  0  0  0  0  0  0  0  0  0
    2.3489    1.7067   21.5331 H   0  0  0  0  0  0  0  0  0  0  0  0
    3.7052    2.6475   21.7296 H   0  0  0  0  0  0  0  0  0  0  0  0
    1.5686    2.0333   24.0434 H   0  0  0  0  0  0  0  0  0  0  0  0
    2.8779    2.9216   24.2518 H   0  0  0  0  0  0  0  0  0  0  0  0
    4.0000    1.3196   25.7646 H   0  0  0  0  0  0  0  0  0  0  0  0
    1.5470    2.7622   26.9666 H   0  0  0  0  0  0  0  0  0  0  0  0
    0.0434    1.4615   28.8573 H   0  0  0  0  0  0  0  0  0  0  0  0
    2.1120   -1.4064   26.8897 H   0  0  0  0  0  0  0  0  0  0  0  0
    4.9482   -0.6267   25.3683 H   0  0  0  0  0  0  0  0  0  0  0  0
    3.4380   -1.4309   25.1526 H   0  0  0  0  0  0  0  0  0  0  0  0
    5.3169   -1.7188   22.9371 H   0  0  0  0  0  0  0  0  0  0  0  0
    3.6256   -1.8841   23.0943 H   0  0  0  0  0  0  0  0  0  0  0  0
    7.4928    0.7128   19.4700 H   0  0  0  0  0  0  0  0  0  0  0  0
    8.8340    2.5537   18.6261 H   0  0  0  0  0  0  0  0  0  0  0  0
    7.3390    3.3357   18.0781 H   0  0  0  0  0  0  0  0  0  0  0  0
    7.3165    0.8943   16.7255 H   0  0  0  0  0  0  0  0  0  0  0  0
    7.6370    2.4890   16.0280 H   0  0  0  0  0  0  0  0  0  0  0  0
    8.8798   -0.7127   15.4960 H   0  0  0  0  0  0  0  0  0  0  0  0
   11.4009   -0.9297   14.7730 H   0  0  0  0  0  0  0  0  0  0  0  0
   12.7341    1.2834   15.3216 H   0  0  0  0  0  0  0  0  0  0  0  0
  1  2  2  0
  2  3  1  0
  3  4  1  0
  4  5  1  0
  5  6  1  0
  6  7  1  0
  7  8  1  0
  8  9  2  0
  9 10  1  0
 10 11  2  0
 11 12  1  0
  7 13  1  0
 13 14  1  0
  2 15  1  0
 15 16  1  0
 16 17  1  0
 17 18  1  0
 18 19  2  0
 19 20  1  0
 20 21  2  0
 21 22  1  0
 14  4  1  0
 22 18  1  0
 12  8  1  0
  3 23  1  0
  3 24  1  0
  5 25  1  0
  5 26  1  0
  6 27  1  0
  6 28  1  0
  7 29  1  0
  9 30  1  0
 10 31  1  0
 12 32  1  0
 13 33  1  0
 13 34  1  0
 14 35  1  0
 14 36  1  0
 15 37  1  0
 16 38  1  0
 16 39  1  0
 17 40  1  0
 17 41  1  0
 19 42  1  0
 20 43  1  0
 21 44  1  0
M  END
>  <Energy>  (1381) 
316.48946304878882

>  <compound_id>  (1381) 
30349

>  <target_id>  (1381) 
1

>  <reference_id>  (1381) 
97

>  <inspiration_ids>  (1381) 
[97, 7]

>  <energy_score>  (1381) 
212.07612856502988

>  <distance_score>  (1381) 
11.759243615637788

>  <path>  (1381) 
/opt/xchem-fragalysis-2/maxwin/BulkDock/SCRATCH/511024/C30349-P97/C30349-P97.minimised.mol

>  <scratch_subdir>  (1381) 
/opt/xchem-fragalysis-2/maxwin/BulkDock/SCRATCH/511024/C30349-P97

>  <fragmenstein_runtime>  (1381) 
16.18332076072693

>  <fragmenstein_outcome>  (1381) 
too moved

>  <fragmenstein_mode>  (1381) 
expansion

>  <fragmenstein_error>  (1381) 


$$$$
C30349-P7
     RDKit          3D

 44 46  0  0  0  0  0  0  0  0999 V2000
    4.8501   -0.9993   28.3644 O   0  0  0  0  0  0  0  0  0  0  0  0
    4.3410   -0.5570   27.3682 C   0  0  0  0  0  0  0  0  0  0  0  0
    2.9676    0.2224   27.5309 C   0  0  0  0  0  0  0  0  0  0  0  0
    1.8633   -0.4793   28.2676 N   0  0  0  0  0  0  0  0  0  0  0  0
    0.5751    0.2311   28.2020 C   0  0  0  0  0  0  0  0  0  0  0  0
    0.1534    1.0301   29.4557 C   0  0  0  0  0  0  0  0  0  0  0  0
    0.2280    0.2282   30.7734 C   0  0  0  0  0  0  0  0  0  0  0  0
   -1.0769    0.1056   31.5777 C   0  0  0  0  0  0  0  0  0  0  0  0
   -1.2850    0.0311   32.9478 C   0  0  0  0  0  0  0  0  0  0  0  0
   -2.6798    0.0141   33.1338 C   0  0  0  0  0  0  0  0  0  0  0  0
   -3.3316    0.0963   31.9754 N   0  0  0  0  0  0  0  0  0  0  0  0
   -2.3433    0.0720   31.0475 N   0  0  0  0  0  0  0  0  0  0  0  0
    0.9532   -1.1069   30.5387 C   0  0  0  0  0  0  0  0  0  0  0  0
    2.1989   -0.8993   29.6356 C   0  0  0  0  0  0  0  0  0  0  0  0
    4.8227   -0.5236   25.9838 N   0  0  0  0  0  0  0  0  0  0  0  0
    6.1163   -0.9319   25.3995 C   0  0  0  0  0  0  0  0  0  0  0  0
    6.0631   -1.4237   23.9247 C   0  0  0  0  0  0  0  0  0  0  0  0
    7.2220   -2.2423   23.3747 C   0  0  0  0  0  0  0  0  0  0  0  0
    7.1834   -3.0523   22.2475 C   0  0  0  0  0  0  0  0  0  0  0  0
    8.3716   -3.8140   22.0653 C   0  0  0  0  0  0  0  0  0  0  0  0
    9.2984   -3.5404   23.0438 C   0  0  0  0  0  0  0  0  0  0  0  0
    8.7687   -2.3020   24.1018 S   0  0  0  0  0  0  0  0  0  0  0  0
    3.2059    1.1642   28.0421 H   0  0  0  0  0  0  0  0  0  0  0  0
    2.6109    0.4930   26.5359 H   0  0  0  0  0  0  0  0  0  0  0  0
   -0.1997   -0.5244   28.0154 H   0  0  0  0  0  0  0  0  0  0  0  0
    0.5352    0.8971   27.3317 H   0  0  0  0  0  0  0  0  0  0  0  0
   -0.8448    1.4500   29.2911 H   0  0  0  0  0  0  0  0  0  0  0  0
    0.8271    1.8939   29.5406 H   0  0  0  0  0  0  0  0  0  0  0  0
    0.8845    0.8192   31.4322 H   0  0  0  0  0  0  0  0  0  0  0  0
   -0.5186    0.0095   33.7106 H   0  0  0  0  0  0  0  0  0  0  0  0
   -3.2373   -0.0340   34.0602 H   0  0  0  0  0  0  0  0  0  0  0  0
   -2.6032    0.0818   30.0663 H   0  0  0  0  0  0  0  0  0  0  0  0
    0.2774   -1.8438   30.0855 H   0  0  0  0  0  0  0  0  0  0  0  0
    1.2713   -1.5288   31.5002 H   0  0  0  0  0  0  0  0  0  0  0  0
    2.8490   -0.1584   30.1184 H   0  0  0  0  0  0  0  0  0  0  0  0
    2.7480   -1.8462   29.5914 H   0  0  0  0  0  0  0  0  0  0  0  0
    4.0913   -0.1456   25.3852 H   0  0  0  0  0  0  0  0  0  0  0  0
    6.5640   -1.6556   26.0805 H   0  0  0  0  0  0  0  0  0  0  0  0
    6.7655   -0.0509   25.4574 H   0  0  0  0  0  0  0  0  0  0  0  0
    5.9019   -0.5735   23.2552 H   0  0  0  0  0  0  0  0  0  0  0  0
    5.1669   -2.0527   23.8313 H   0  0  0  0  0  0  0  0  0  0  0  0
    6.3051   -3.1346   21.6194 H   0  0  0  0  0  0  0  0  0  0  0  0
    8.5427   -4.5301   21.2731 H   0  0  0  0  0  0  0  0  0  0  0  0
   10.2854   -3.9672   23.1580 H   0  0  0  0  0  0  0  0  0  0  0  0
  1  2  2  0
  2  3  1  0
  3  4  1  0
  4  5  1  0
  5  6  1  0
  6  7  1  0
  7  8  1  0
  8  9  2  0
  9 10  1  0
 10 11  2  0
 11 12  1  0
  7 13  1  0
 13 14  1  0
  2 15  1  0
 15 16  1  0
 16 17  1  0
 17 18  1  0
 18 19  2  0
 19 20  1  0
 20 21  2  0
 21 22  1  0
 14  4  1  0
 22 18  1  0
 12  8  1  0
  3 23  1  0
  3 24  1  0
  5 25  1  0
  5 26  1  0
  6 27  1  0
  6 28  1  0
  7 29  1  0
  9 30  1  0
 10 31  1  0
 12 32  1  0
 13 33  1  0
 13 34  1  0
 14 35  1  0
 14 36  1  0
 15 37  1  0
 16 38  1  0
 16 39  1  0
 17 40  1  0
 17 41  1  0
 19 42  1  0
 20 43  1  0
 21 44  1  0
M  END
>  <Energy>  (1382) 
75.32504715528097

>  <compound_id>  (1382) 
30349

>  <target_id>  (1382) 
1

>  <reference_id>  (1382) 
7

>  <inspiration_ids>  (1382) 
[97, 7]

>  <energy_score>  (1382) 
-29.088287328475474

>  <distance_score>  (1382) 
13.04320690178073

>  <path>  (1382) 
/opt/xchem-fragalysis-2/maxwin/BulkDock/SCRATCH/511024/C30349-P7/C30349-P7.minimised.mol

>  <scratch_subdir>  (1382) 
/opt/xchem-fragalysis-2/maxwin/BulkDock/SCRATCH/511024/C30349-P7

>  <fragmenstein_runtime>  (1382) 
12.566016912460327

>  <fragmenstein_outcome>  (1382) 
too moved

>  <fragmenstein_mode>  (1382) 
expansion

>  <fragmenstein_error>  (1382) 


$$$$
C30350-P97
     RDKit          3D

 44 46  0  0  0  0  0  0  0  0999 V2000
    5.2005   -0.1505   27.5140 O   0  0  0  0  0  0  0  0  0  0  0  0
    4.4926   -0.5094   26.6125 C   0  0  0  0  0  0  0  0  0  0  0  0
    3.0279   -1.0731   26.9346 C   0  0  0  0  0  0  0  0  0  0  0  0
    2.5635   -0.8902   28.3568 N   0  0  0  0  0  0  0  0  0  0  0  0
    3.3817   -1.6849   29.2865 C   0  0  0  0  0  0  0  0  0  0  0  0
    2.6287   -2.1827   30.5269 C   0  0  0  0  0  0  0  0  0  0  0  0
    1.6944   -1.1145   31.0823 C   0  0  0  0  0  0  0  0  0  0  0  0
    0.6752   -0.6333   30.0224 C   0  0  0  0  0  0  0  0  0  0  0  0
   -0.7529   -0.9495   30.5024 C   0  0  0  0  0  0  0  0  0  0  0  0
   -1.6347   -0.1908   31.2626 C   0  0  0  0  0  0  0  0  0  0  0  0
   -2.7054   -1.0485   31.5791 C   0  0  0  0  0  0  0  0  0  0  0  0
   -2.5514   -2.2555   31.0345 N   0  0  0  0  0  0  0  0  0  0  0  0
   -1.3791   -2.1649   30.3710 N   0  0  0  0  0  0  0  0  0  0  0  0
    1.1029   -1.0968   28.5782 C   0  0  0  0  0  0  0  0  0  0  0  0
    4.7133   -0.4976   25.1650 N   0  0  0  0  0  0  0  0  0  0  0  0
    5.8220    0.0435   24.3634 C   0  0  0  0  0  0  0  0  0  0  0  0
    6.3522   -0.8700   23.2220 C   0  0  0  0  0  0  0  0  0  0  0  0
    7.1609   -0.1529   22.1555 C   0  0  0  0  0  0  0  0  0  0  0  0
    8.3256    0.5795   22.2838 C   0  0  0  0  0  0  0  0  0  0  0  0
    8.7371    1.1710   21.0527 C   0  0  0  0  0  0  0  0  0  0  0  0
    7.9263    0.8067   20.0033 C   0  0  0  0  0  0  0  0  0  0  0  0
    6.6507   -0.2032   20.5139 S   0  0  0  0  0  0  0  0  0  0  0  0
    2.3550   -0.4933   26.3091 H   0  0  0  0  0  0  0  0  0  0  0  0
    2.9819   -2.1265   26.6387 H   0  0  0  0  0  0  0  0  0  0  0  0
    3.8147   -2.5628   28.7922 H   0  0  0  0  0  0  0  0  0  0  0  0
    4.2180   -1.0632   29.6254 H   0  0  0  0  0  0  0  0  0  0  0  0
    3.3515   -2.4797   31.2957 H   0  0  0  0  0  0  0  0  0  0  0  0
    2.0499   -3.0810   30.2769 H   0  0  0  0  0  0  0  0  0  0  0  0
    2.2989   -0.2562   31.4050 H   0  0  0  0  0  0  0  0  0  0  0  0
    1.2022   -1.4950   31.9854 H   0  0  0  0  0  0  0  0  0  0  0  0
    0.7330    0.4663   30.0136 H   0  0  0  0  0  0  0  0  0  0  0  0
   -1.4850    0.8269   31.5945 H   0  0  0  0  0  0  0  0  0  0  0  0
   -3.5793   -0.8484   32.1848 H   0  0  0  0  0  0  0  0  0  0  0  0
   -1.0458   -2.9871   29.8787 H   0  0  0  0  0  0  0  0  0  0  0  0
    0.5333   -0.5021   27.8535 H   0  0  0  0  0  0  0  0  0  0  0  0
    0.8352   -2.1469   28.4053 H   0  0  0  0  0  0  0  0  0  0  0  0
    3.8602   -0.8014   24.6947 H   0  0  0  0  0  0  0  0  0  0  0  0
    6.6370    0.3020   25.0484 H   0  0  0  0  0  0  0  0  0  0  0  0
    5.4461    0.9825   23.9409 H   0  0  0  0  0  0  0  0  0  0  0  0
    6.9644   -1.6686   23.6592 H   0  0  0  0  0  0  0  0  0  0  0  0
    5.4931   -1.3665   22.7551 H   0  0  0  0  0  0  0  0  0  0  0  0
    8.8264    0.7357   23.2331 H   0  0  0  0  0  0  0  0  0  0  0  0
    9.5784    1.8456   20.9563 H   0  0  0  0  0  0  0  0  0  0  0  0
    7.9991    1.1139   18.9695 H   0  0  0  0  0  0  0  0  0  0  0  0
  1  2  2  0
  2  3  1  0
  3  4  1  0
  4  5  1  0
  5  6  1  0
  6  7  1  0
  7  8  1  0
  8  9  1  0
  9 10  2  0
 10 11  1  0
 11 12  2  0
 12 13  1  0
  8 14  1  0
  2 15  1  0
 15 16  1  0
 16 17  1  0
 17 18  1  0
 18 19  2  0
 19 20  1  0
 20 21  2  0
 21 22  1  0
 14  4  1  0
 22 18  1  0
 13  9  1  0
  3 23  1  0
  3 24  1  0
  5 25  1  0
  5 26  1  0
  6 27  1  0
  6 28  1  0
  7 29  1  0
  7 30  1  0
  8 31  1  0
 10 32  1  0
 11 33  1  0
 13 34  1  0
 14 35  1  0
 14 36  1  0
 15 37  1  0
 16 38  1  0
 16 39  1  0
 17 40  1  0
 17 41  1  0
 19 42  1  0
 20 43  1  0
 21 44  1  0
M  END
>  <Energy>  (1383) 
85.63763454072533

>  <compound_id>  (1383) 
30350

>  <target_id>  (1383) 
1

>  <reference_id>  (1383) 
97

>  <inspiration_ids>  (1383) 
[97, 7]

>  <energy_score>  (1383) 
-30.773929901202905

>  <distance_score>  (1383) 
12.696885240257942

>  <path>  (1383) 
/opt/xchem-fragalysis-2/maxwin/BulkDock/SCRATCH/511024/C30350-P97/C30350-P97.minimised.mol

>  <scratch_subdir>  (1383) 
/opt/xchem-fragalysis-2/maxwin/BulkDock/SCRATCH/511024/C30350-P97

>  <fragmenstein_runtime>  (1383) 
16.332014799118042

>  <fragmenstein_outcome>  (1383) 
too moved

>  <fragmenstein_mode>  (1383) 
expansion

>  <fragmenstein_error>  (1383) 


$$$$
C30350-P7
     RDKit          3D

 44 46  0  0  0  0  0  0  0  0999 V2000
    3.4689    1.3584   26.9722 O   0  0  0  0  0  0  0  0  0  0  0  0
    3.6796    0.1980   26.7403 C   0  0  0  0  0  0  0  0  0  0  0  0
    2.8387   -0.9065   27.5582 C   0  0  0  0  0  0  0  0  0  0  0  0
    2.0251   -0.3143   28.6794 N   0  0  0  0  0  0  0  0  0  0  0  0
    2.8597    0.2258   29.7491 C   0  0  0  0  0  0  0  0  0  0  0  0
    2.0378    1.1998   30.6023 C   0  0  0  0  0  0  0  0  0  0  0  0
    0.5969    0.7399   30.8579 C   0  0  0  0  0  0  0  0  0  0  0  0
    0.4624   -0.7808   30.6957 C   0  0  0  0  0  0  0  0  0  0  0  0
   -0.9095   -1.2651   31.1932 C   0  0  0  0  0  0  0  0  0  0  0  0
   -1.9856   -1.9034   30.6098 C   0  0  0  0  0  0  0  0  0  0  0  0
   -2.9183   -2.1208   31.6512 C   0  0  0  0  0  0  0  0  0  0  0  0
   -2.4908   -1.6530   32.8237 N   0  0  0  0  0  0  0  0  0  0  0  0
   -1.2903   -1.1175   32.5157 N   0  0  0  0  0  0  0  0  0  0  0  0
    0.9233   -1.1701   29.2269 C   0  0  0  0  0  0  0  0  0  0  0  0
    4.6240   -0.4316   25.8206 N   0  0  0  0  0  0  0  0  0  0  0  0
    5.5424    0.1579   24.8217 C   0  0  0  0  0  0  0  0  0  0  0  0
    6.2491   -0.8140   23.8330 C   0  0  0  0  0  0  0  0  0  0  0  0
    6.8478   -0.1568   22.5988 C   0  0  0  0  0  0  0  0  0  0  0  0
    7.7972    0.8437   22.5064 C   0  0  0  0  0  0  0  0  0  0  0  0
    8.0524    1.2371   21.1579 C   0  0  0  0  0  0  0  0  0  0  0  0
    7.3455    0.4801   20.2530 C   0  0  0  0  0  0  0  0  0  0  0  0
    6.3588   -0.6738   21.0309 S   0  0  0  0  0  0  0  0  0  0  0  0
    2.1641   -1.3765   26.8386 H   0  0  0  0  0  0  0  0  0  0  0  0
    3.5274   -1.6639   27.9490 H   0  0  0  0  0  0  0  0  0  0  0  0
    3.2598   -0.5867   30.3695 H   0  0  0  0  0  0  0  0  0  0  0  0
    3.7308    0.7719   29.3723 H   0  0  0  0  0  0  0  0  0  0  0  0
    2.0100    2.1864   30.1230 H   0  0  0  0  0  0  0  0  0  0  0  0
    2.5512    1.3362   31.5620 H   0  0  0  0  0  0  0  0  0  0  0  0
    0.2905    1.0740   31.8564 H   0  0  0  0  0  0  0  0  0  0  0  0
   -0.0770    1.2418   30.1506 H   0  0  0  0  0  0  0  0  0  0  0  0
    1.1887   -1.2488   31.3784 H   0  0  0  0  0  0  0  0  0  0  0  0
   -2.0797   -2.2007   29.5732 H   0  0  0  0  0  0  0  0  0  0  0  0
   -3.8809   -2.6139   31.5993 H   0  0  0  0  0  0  0  0  0  0  0  0
   -0.7605   -0.6758   33.2594 H   0  0  0  0  0  0  0  0  0  0  0  0
    0.0722   -1.0952   28.5403 H   0  0  0  0  0  0  0  0  0  0  0  0
    1.2375   -2.2214   29.2421 H   0  0  0  0  0  0  0  0  0  0  0  0
    4.4706   -1.4362   25.8234 H   0  0  0  0  0  0  0  0  0  0  0  0
    4.9699    0.9195   24.2814 H   0  0  0  0  0  0  0  0  0  0  0  0
    6.2986    0.7097   25.3929 H   0  0  0  0  0  0  0  0  0  0  0  0
    7.0400   -1.3544   24.3678 H   0  0  0  0  0  0  0  0  0  0  0  0
    5.5190   -1.5700   23.5261 H   0  0  0  0  0  0  0  0  0  0  0  0
    8.2518    1.3101   23.3724 H   0  0  0  0  0  0  0  0  0  0  0  0
    8.7177    2.0428   20.8754 H   0  0  0  0  0  0  0  0  0  0  0  0
    7.3440    0.5625   19.1759 H   0  0  0  0  0  0  0  0  0  0  0  0
  1  2  2  0
  2  3  1  0
  3  4  1  0
  4  5  1  0
  5  6  1  0
  6  7  1  0
  7  8  1  0
  8  9  1  0
  9 10  2  0
 10 11  1  0
 11 12  2  0
 12 13  1  0
  8 14  1  0
  2 15  1  0
 15 16  1  0
 16 17  1  0
 17 18  1  0
 18 19  2  0
 19 20  1  0
 20 21  2  0
 21 22  1  0
 14  4  1  0
 22 18  1  0
 13  9  1  0
  3 23  1  0
  3 24  1  0
  5 25  1  0
  5 26  1  0
  6 27  1  0
  6 28  1  0
  7 29  1  0
  7 30  1  0
  8 31  1  0
 10 32  1  0
 11 33  1  0
 13 34  1  0
 14 35  1  0
 14 36  1  0
 15 37  1  0
 16 38  1  0
 16 39  1  0
 17 40  1  0
 17 41  1  0
 19 42  1  0
 20 43  1  0
 21 44  1  0
M  END
